[General]
repeat = 10000
sim-time-limit = 15850s

#ned-path = /home/user/Workspace/DenseWirelessNetworks/dense-wireless-sensor-network/IEEE802154/simulations/;/home/user/Workspace/DenseWirelessNetworks/dense-wireless-sensor-network/IEEE802154/src
network = dewi.simulations.UseCase1_Lighting.Dimming.TSCH.OLD.RealTimeNetwork
num-rngs = 2
cmdenv-express-mode = true
#tkenv-plugin-path = ../../../Etc/plugins
description = "Lighting Dimming TSCH"
#seed-%-mt = 54366
#output-vector-file = ${resultdir}/vector/${runid}.vec
#output-scalar-file = ${resultdir}/scalar/${runid}.sca

#Debug
parallel-simulation = false
**.debug = false
**.coreDebug = false

#Number of Nodes
**.numHosts = 20

###########################################################
##############Configure NodeLocation#######################
###########################################################
*.lamp[*].mobility.distanceToWall = 2.5m
*.lamp[*].mobility.distanceToCeiling = 0.3m

*.lamp[*].X = 80m
*.lamp[*].Y = 40m
*.lamp[*].Z = 3.3m


*.lightSwitch.mobility.initFromDisplayString = false
*.lightSwitch.mobility.initialX = 40m
*.lightSwitch.mobility.initialY = 40m
*.lightSwitch.mobility.initialZ = 1.2m

##########################################################
##############Configure ChannelControl#####################
###########################################################
**.channelControl.coreDebug = false
**.channelControl.alpha = 3 #// path loss coefficient
**.channelControl.carrierFrequency = 2.4GHz #// base carrier frequency of all the channels (in Hz)
**.channelControl.maxInterferenceDistance = -1m  ##6m for 240 nodes ##26m 16 nodes
**.channelControl.numChannels = 27 #// number of radio channels (frequencies)
**.channelControl.pMax = 1mW #// maximum sending power used for this network (in mW)
**.channelControl.propagationModel = "NakagamiModel" #("FreeSpaceModel","TwoRayGroundModel","RiceModel","RayleighModel","NakagamiModel","LogNormalShadowingModel")
**.channelControl.sat = -95dBm #// signal attenuation threshold (in dBm)
**.channelNumber = 11

###########################################################
##############Configure Display############################
###########################################################

**.disp.alpha = 3
**.disp.carrierFrequency = 2.4GHz
**.disp.debug = default
**.disp.sat = -95dBm
**.disp.sensitivity = -95dBm
**.disp.transmitterPower = 1mW

###########################################################
##############Configure Battery############################
###########################################################
**.battery.ConsumedVector = true
**.battery.capacity = 2850
**.battery.nominal = 2850
**.battery.endSimulationIfexhausted = false
**.battery.publishDelta = 0.01
**.battery.publishTime = 10s
**.battery.resolution = 1s
**.battery.voltage = 3
#**.battery.*_EnergyConsumed_*.vector-recording = false


###########################################################
###########Configure WLAN Module###########################
###########################################################
#Configure WLAN Queue
**.wlan.ifqType = "Ieee802154eQueue"
**.ifq.frameCapacity = 256
**.macAckWaitDuration = 0.001s

#Configure WLAN PHY
**.wlan.phy.usage_radio_recv = 23mA
**.wlan.phy.usage_radio_idle = 0.021mA
**.wlan.phy.usage_radio_sleep = 0.001mA

###########################################################
##############Configure PHYLayer###########################
###########################################################

#Configure PHY-Layer
**.wlan.phy.channelNumber = 11
**.wlan.phy.NoBitError = false

**.wlan.phy.sensitivity = -95dBm #[dBm]
**.wlan.phy.receptionThreshold = -110dBm
**.wlan.phy.thermalNoise = -110dBm #[dBm]
**.wlan.phy.pathLossAlpha = 3
**.wlan.phy.TransmissionAntennaGainIndB = 0dB
**.wlan.phy.ReceiveAntennaGainIndB = 0dB
**.wlan.phy.SystemLossFactor = 0dB
**.wlan.phy.nak_m = 2.9
**.wlan.phy.aMaxPHYPacketSize = 127
**.wlan.phy.aTurnaroundTime = default #312.5
**.phy.snirThreshold = 4dB



###########################################################
##############Configure MAC Layer##########################
###########################################################
#**.fixhost[0].wlan.mac.isPANCoor = true

####		LINUX		######
#**.hoppingSequenceList.hoppingSequenceListFilename = "hoppingSequenceList" 
#**.hoppingSequenceList.hoppingSequenceListSubFolder = "/home/user/DATA/Tables/HoppingSequenceList/"
#**.hoppingSequenceList.readHoppingSequenceListFromFile = true
#**.linkTable.linktableFilesSubFolder = "/home/user/DATA/Tables/LinkTable/20/"
#**.linkTable.readLinksFromFile = true
#**.linkTable.linkFilename ="linkTable"
#**.slotframeTable.slotframeTableSubFolder = "/home/user/DATA/Tables/SlotframeTable/20/"
#**.slotframeTable.readSlotframesFromFile = true
#**.slotframeTable.slotframeFilename = "slotframeTable"
#**.timeslotTemplate.timeslotTableSubFolder =  "/home/user/DATA/Tables/TemplateTable/"
#**.timeslotTemplate.timeslotFilename = "templateTable"
#**.timeslotTemplate.readTimeslotsFromFile =  true


####		WINDOWS			######
**.hoppingSequenceList.hoppingSequenceListFilename = "hoppingSequenceList" 
**.hoppingSequenceList.hoppingSequenceListSubFolder = ""
**.hoppingSequenceList.readHoppingSequenceListFromFile = true
**.linkTable.readLinksFromFile = true
**.linkTable.linkFilename ="linkTable"
**.slotframeTable.readSlotframesFromFile = true
**.slotframeTable.slotframeFilename = "slotframeTable"
**.timeslotTemplate.timeslotFilename = "templateTable"
**.timeslotTemplate.readTimeslotsFromFile =  true
**.slotframeTable.slotframeTableSubFolder = ""
**.timeslotTemplate.timeslotTableSubFolder =  ""

**.wlan.mac.useMACAcks = true
**.wlan.mac.sifs = default #0.005s
**.wlan.mac.macMaxCSMABackoffs = 5
**.wlan.mac.macMaxFrameRetries = 3
**.wlan.mac.macAckWaitDuration = 0.05s
**.wlan.mac.ccaDetectionTime = 0.000128s
**.wlan.mac.rxSetupTime = default
**.wlan.mac.aTurnaroundTime = default #0.005s
**.wlan.mac.aUnitBackoffPeriod = default
**.wlan.mac.ackLength = default
**.wlan.mac.headerLength = default
**.wlan.mac.backoffMethod = "exponential"
**.wlan.mac.contentionWindow = 2
**.wlan.mac.macMinBE = default
**.wlan.mac.macMaxBE = default
**.wlan.mac.useIeee802Ctrl 	= true			# to use the Ieee802Ctrl Network messages
**.wlan.mac.useTSCH 			= true			# use the TSCH mode (Std 802.15.4e-2012)
**.wlan.mac.setRxOnWhenIdle 	= false			# default: true;
**.lightSwitch.**.mac.isPANCoor			= false
**.**.mac.isPANCoor			= false
**.**.mac.useTimeslotID 		= 0			# default: 0 (problem at the std default with the 2200 RxWait time (in the 6TSCH is it declaired as 2000 RxWait time))
# use: 2 for "corrected" default or 1 for the 6TSCH minimal example
**.**.mac.useHoppingSequenceID = 0			# default: 0 (all 16 channels)
**.**.mac.useMetrics			= true
**.mac.useCCA = true
**.mac.panCoorName						= "lightSwitch"

###########################################################
##############Configure Scheduler##################
###########################################################

**.wlan.scheduleTyp = "SlottedAlohaScheduler"

###########################################################
##############Configure InterfaceTable#####################
###########################################################

**.interfaceTable.displayAddresses = false

###########################################################
##############Configure NetworkConfigurator################
###########################################################

**.configurator.addDefaultRoutes = false
**.configurator.addStaticRoutes = false
**.configurator.addSubnetRoutes = false
**.configurator.assignAddresses = true
**.configurator.assignDisjunctSubnetAddresses = true
**.configurator.dumpAddresses = false
**.configurator.dumpConfig = "ConfigTest"
**.configurator.dumpLinks = false
**.configurator.dumpRoutes = false
**.configurator.dumpTopology = false
**.configurator.optimizeRoutes = false


###########################################################
##############Configure Display############################
###########################################################

**.disp.alpha = 2
**.disp.carrierFrequency = 2.4GHz
**.disp.debug = default
**.disp.sat = -50dBm
**.disp.sensitivity = -85dBm
**.disp.transmitterPower = 2mW

###########################################################
####################Configure UDPApp#######################
###########################################################
####Sender####
**.lightSwitch.udpAppType = "UDPLightSwitch"
**.lightSwitch.numUdpApps = 1


**.lightSwitch.udpApp[0].excludeLocalDestAddresses = true
**.lightSwitch.udpApp[0].chooseDestAddrMode = "perBurst"
**.lightSwitch.udpApp[0].destAddrRNG = 1
**.lightSwitch.udpApp[0].localPort = 1234
**.lightSwitch.udpApp[0].destPort = 1234
**.lightSwitch.udpApp[0].startTime = 20s
**.lightSwitch.udpApp[0].stopTime = 11d
**.lightSwitch.udpApp[0].messageLength = 72B
**.lightSwitch.udpApp[0].burstDuration = 2s
**.lightSwitch.udpApp[0].sleepDuration = 3600s
**.lightSwitch.udpApp[0].sendInterval = 0.1s
**.lightSwitch.udpApp[0].delayLimit = 200s
**.lightSwitch.udpApp[0].outputInterface = "wlan"
**.lightSwitch.udpApp[0].outputInterfaceMulticastBroadcast = "wlan"
**.lightSwitch.udpApp[0].setBroadcast = true

##all other nodes##
##all other nodes##
**.lamp[*].udpAppType = "UDPLamp"
**.lamp[*].numUdpApps = 1
**.lamp[*].udpApp[0].localPort = 1234
**.lamp[*].udpApp[0].destPort = 1234
**.lamp[*].udpApp[0].messageLength = 72B #lenght in Bytes
**.lamp[*].udpApp[0].sendInterval = 5s  #+ uniform(-0.001s,0.001s,1)
**.lamp[*].udpApp[0].burstDuration = 2s #uniform(1s,4s,1)
**.lamp[*].udpApp[0].stopTime = -1s
**.lamp[*].udpApp[0].startTime = 20s
**.lamp[*].udpApp[0].delayLimit = 200s
**.lamp[*].udpApp[0].setBroadcast = true
**.lamp[*].udpApp[0].outputInterface = "wlan"
**.lamp[*].udpApp[0].outputInterfaceMulticastBroadcast = "wlan"
**.lamp[*].udpApp[0].isSource = false
**.lamp[*].udpApp[0].isSink = true
**.lamp[*].udpApp[0].resendBroadcast = true

**.lamp[*].udpApp[0].*_E2ED_*.vector-recording = true
#**.udpApp[0].*_E2ED_*.with-akaroa = true

**.lamp[*].udpApp[0].*_HopCount_*.vector-recording = true
#**.udpApp[0].*_HopCount_*.with-akaroa = true

**.lamp[*].udpApp[0].*_ReceivedMSG_*.scalar-recording = true
#**.udpApp[0].*_ReceivedMSG_*.with-akaroa = true
**.lamp[*].udpApp[0].*_ReMSG_*.scalar-recording = true
#**.udpApp[0].*_ReMSG_*.with-akaroa = true
**.lamp[*].udpApp[0].*_DRMSG_*.scalar-recording = true
#**.udpApp[0].*_DRMSG_*.with-akaroa = true
**.lamp[0].udpApp[0].*_MSGSent_*.scalar-recording = true
#**.fixhost[0].udpApp[0].*_MSGSent_*.with-akaroa = true
**.lamp[0].udpApp[0].*_BurstsSent_*.scalar-recording = true
#**.fixhost[0].udpApp[0].*_BurstsSent_*.with-akaroa = true

**.lamp[*].**_numCollision_*.scalar-recording = true
#**.udpApp[0].*_numCollision_*.with-akaroa = true
**.lamp[*].**_nbDroppedFrames_*.scalar-recording = true
#**.udpApp[0].*_nbDroppedFrames_*.with-akaroa = true
**.lamp[*].**_nbRxFrames_*.scalar-recording = false
#**.udpApp[0].*_nbRxFrames_*.with-akaroa = true
**.lamp[*].**_nbTxFrames_*.scalar-recording = true
#**.udpApp[0].*_nbTxFrames_*.with-akaroa = true
**.lamp[*].**_nbRxFramesBroadcast_*.scalar-recording = true


**.vector-recording = false
#**.with-akaroa = false



###Configure Destination Addess
#**.fixhost[0].udpApp[0].destAddresses = moduleListByPath("**.fixhost[5]")
#**.fixhost[1].udpApp[0].destAddresses = moduleListByPath("**.fixhost[3]")
#**.fixhost[2].udpApp[0].destAddresses = moduleListByPath("**.fixhost[0]")
**.lightSwitch.udpApp[0].destAddresses =  moduleListByPath("**.lamp[*]")
**.lamp[*].udpApp[0].destAddresses = moduleListByPath("**.lightSwitch")
#**.fixhost[*].udpApp[0].destAddresses = ""


#**.fixhost[4].udpApp[0].destAddresses = moduleListByPath("**.fixhost[0]")
#**.fixhost[5].udpApp[0].destAddresses = moduleListByPath("**.fixhost[3]")



###########################################################
####################Configure RoutingProtocol##############
###########################################################

#Set Routing protocol
**.routingProtocol = ""

#General MANET parameters
**.manetrouting.excludedInterfaces = ""
**.manetrouting.interfaces = "prefix(wlan)"
**.manetrouting.useManetLabelRouting = true
**.manetrouting.useICMP = true 
**.manetrouting.setICMPSourceAddress = true
**.manetrouting.manetPurgeRoutingTables = true
**.manetrouting.autoassignAddress = false
**.manetrouting.autoassignAddressBase = "10.0.0.0"
**.manetrouting.isStaticNode = true

#AODV-UU
**.manetrouting.log_to_file = false
**.manetrouting.hello_jittering = false
**.manetrouting.optimized_hellos = true
**.manetrouting.expanding_ring_search = false
**.manetrouting.local_repair = true
**.manetrouting.rreq_gratuitous = false
**.manetrouting.debug = true
**.manetrouting.rt_log_interval = 0
**.manetrouting.unidir_hack = 1
**.manetrouting.receive_n_hellos = 1
**.manetrouting.wait_on_reboot = 1
**.manetrouting.ratelimit = 1
**.manetrouting.active_timeout = 300
**.manetrouting.llfeedback = true
**.manetrouting.internet_gw_mode = 0
**.manetrouting.internet_gw_address = "0.0.0.0"
**.manetrouting.targetOnlyRreq = true
**.manetrouting.EqualDelay = false
**.manetrouting.broadcastDelay = uniform(0s,0.005s)
**.manetrouting.unicastDelay = 0s
**.manetrouting.UseIndex = true
**.manetrouting.useHover = false
**.manetrouting.costStatic = 1
**.manetrouting.costMobile = 4
**.manetrouting.isRoot = false
**.manetrouting.proactiveRreqTimeout = 5000
**.manetrouting.proactiveLifeTime = 1000000
**.manetrouting.startRreqProactive = intuniform(1000,2000)
**.manetrouting.propagateProactive = true
**.manetrouting.checkNextHop = false
**.manetrouting.PublicRoutingTables = false
**.manetrouting.RreqDelayInReception = false
**.manetrouting.rreqWait = 0.01s
**.manetrouting.avoidDupRREP = true
**.manetrouting.RRERFoceDiscover = true

#OLSR
**.manetrouting.Willingness = 4
**.manetrouting.Hello_ival = 2s
**.manetrouting.Tc_ival = 5s
**.manetrouting.Mid_ival = 5s
**.manetrouting.use_mac = 0
**.manetrouting.UseIndex = false
**.manetrouting.reduceFuncionality = false
**.manetrouting.OLSR_REFRESH_INTERVAL = 2s
**.manetrouting.PublicRoutingTables = false
**.manetrouting.optimizedMid = false
**.manetrouting.DelOnlyRtEntriesInrtable_ = false

#Batman
**.manetrouting.debugLevel = 4
**.manetrouting.purgeTimeout = 200s
**.manetrouting.originatorInterval = 1s
**.manetrouting.preferedGateWay = "0.0.0.0"
**.manetrouting.routingClass = 0
**.manetrouting.aggregationEnable = true
**.manetrouting.GWClass_download_speed = 0
**.manetrouting.GWClass_upload_speed = 0
**.manetrouting.jitter = uniform(0s,0.1s)
**.manetrouting.jitter2 = uniform(-0.1s,0.1s)
**.manetrouting.MAX_AGGREGATION_MS = 0.1s
**.manetrouting.MAX_AGGREGATION_BYTES = 512B
**.manetrouting.desynchronized = 0s
**.manetrouting.broadcastDelay = uniform(0s,0.005s)
**.manetrouting.PublicRoutingTables = false
**.manetrouting.announcedNetworks = ""


##############################################################################
#       Output vectors                                                       #
##############################################################################
#**.DublicatedPk.result-recording-modes = true
#**.ReBroadcastPk.result-recording-modes = true
#**.sentPk. = true
**.End-to-end delay.vector-recording = true
**.Mean end-to-end delay.vector-recording = true
**.vector-recording = false
#**.result-recording-modes = false


##############################################################################
#       Output vectors                                                       #
##############################################################################
#**.DublicatedPk.result-recording-modes = true
#**.ReBroadcastPk.result-recording-modes = true
#**.sentPk. = true
**.scalar-recording = false
#**.End-to-end delay.vector-recording = true
#**.Mean end-to-end delay.vector-recording = true
#**.vector-recording = false
#**.result-recording-modes = false

[Config _20_0dBm]
**.numHosts = 20
result-dir = /home/user/DATA/Sim_Results/Lighting/Dimming/TSCH/_AllNeigh/raw/_0dBm/_20
**.slotframeTable.slotframeTableSubFolder = ""
**.timeslotTemplate.timeslotTableSubFolder =  ""
**.linkTable.linktableFilesSubFolder = ""
### Possible Transmit Power steps
# -25dBm	min power	0.0032mW
# -15dBm	3.16%		0.0316mW	
# -10dbm	10%			0.1mW
#  -7dBm	19.95%		0.1995mW
#  -5dBm	31.6%		0.316mW
#  -3dBm	50%			0.5mW
#  -1dBm	79%			0.79mW
#   0dbm	100%		1mW
**.wlan.phy.transmitterPower = 1mW


[Config _50_0dBm]
**.numHosts = 50
result-dir = /home/user/DATA/Sim_Results/Lighting/Dimming/TSCH/_AllNeigh/raw/_0dBm/_50
**.slotframeTable.slotframeTableSubFolder = "/home/user/DATA/Tables/AllNeigh/SlotframeTable/50/"
**.timeslotTemplate.timeslotTableSubFolder =  "/home/user/DATA/Tables/AllNeigh/TemplateTable/50/"
**.linkTable.linktableFilesSubFolder = "/home/user/DATA/Tables/AllNeigh/LinkTable/50/"
### Possible Transmit Power steps
# -25dBm	min power	0.0032mW
# -15dBm	3.16%		0.0316mW	
# -10dbm	10%			0.1mW
#  -7dBm	19.95%		0.1995mW
#  -5dBm	31.6%		0.316mW
#  -3dBm	50%			0.5mW
#  -1dBm	79%			0.79mW
#   0dbm	100%		1mW
**.wlan.phy.transmitterPower = 1mW


[Config _100_0dBm]
**.numHosts = 100
result-dir = /home/user/DATA/Sim_Results/Lighting/Dimming/TSCH/_AllNeigh/raw/_0dBm/_100
**.slotframeTable.slotframeTableSubFolder = "/home/user/DATA/Tables/AllNeigh/SlotframeTable/100/"
**.timeslotTemplate.timeslotTableSubFolder =  "/home/user/DATA/Tables/AllNeigh/TemplateTable/100/"
**.linkTable.linktableFilesSubFolder = "/home/user/DATA/Tables/AllNeigh/LinkTable/100/"
### Possible Transmit Power steps
# -25dBm	min power	0.0032mW
# -15dBm	3.16%		0.0316mW	
# -10dbm	10%			0.1mW
#  -7dBm	19.95%		0.1995mW
#  -5dBm	31.6%		0.316mW
#  -3dBm	50%			0.5mW
#  -1dBm	79%			0.79mW
#   0dbm	100%		1mW
**.wlan.phy.transmitterPower = 1mW


[Config _150_0dBm]
**.numHosts = 150
result-dir = /home/user/DATA/Sim_Results/Lighting/Dimming/TSCH/_AllNeigh/raw/_0dBm/_150
**.slotframeTable.slotframeTableSubFolder = "/home/user/DATA/Tables/AllNeigh/SlotframeTable/150/"
**.timeslotTemplate.timeslotTableSubFolder =  "/home/user/DATA/Tables/AllNeigh/TemplateTable/150/"
**.linkTable.linktableFilesSubFolder = "/home/user/DATA/Tables/AllNeigh/LinkTable/150/"
### Possible Transmit Power steps
# -25dBm	min power	0.0032mW
# -15dBm	3.16%		0.0316mW	
# -10dbm	10%			0.1mW
#  -7dBm	19.95%		0.1995mW
#  -5dBm	31.6%		0.316mW
#  -3dBm	50%			0.5mW
#  -1dBm	79%			0.79mW
#   0dbm	100%		1mW
**.wlan.phy.transmitterPower = 1mW


[Config _200_0dBm]
**.numHosts = 200
result-dir = /home/user/DATA/Sim_Results/Lighting/Dimming/TSCH/_AllNeigh/raw/_0dBm/_200
**.slotframeTable.slotframeTableSubFolder = "/home/user/DATA/Tables/AllNeigh/SlotframeTable/200/"
**.timeslotTemplate.timeslotTableSubFolder =  "/home/user/DATA/Tables/AllNeigh/TemplateTable/200/"
**.linkTable.linktableFilesSubFolder = "/home/user/DATA/Tables/AllNeigh/LinkTable/200/"
### Possible Transmit Power steps
# -25dBm	min power	0.0032mW
# -15dBm	3.16%		0.0316mW	
# -10dbm	10%			0.1mW
#  -7dBm	19.95%		0.1995mW
#  -5dBm	31.6%		0.316mW
#  -3dBm	50%			0.5mW
#  -1dBm	79%			0.79mW
#   0dbm	100%		1mW
**.wlan.phy.transmitterPower = 1mW


[Config _240_0dBm]
**.numHosts = 240
result-dir = /home/user/DATA/Sim_Results/Lighting/Dimming/TSCH/_AllNeigh/raw/_0dBm/_240
**.slotframeTable.slotframeTableSubFolder = "/home/user/DATA/Tables/AllNeigh/SlotframeTable/240/"
**.timeslotTemplate.timeslotTableSubFolder =  "/home/user/DATA/Tables/AllNeigh/TemplateTable/240/"
**.linkTable.linktableFilesSubFolder = "/home/user/DATA/Tables/AllNeigh/LinkTable/240/"
### Possible Transmit Power steps
# -25dBm	min power	0.0032mW
# -15dBm	3.16%		0.0316mW	
# -10dbm	10%			0.1mW
#  -7dBm	19.95%		0.1995mW
#  -5dBm	31.6%		0.316mW
#  -3dBm	50%			0.5mW
#  -1dBm	79%			0.79mW
#   0dbm	100%		1mW
**.wlan.phy.transmitterPower = 1mW

[Config _400_0dBm]
**.numHosts = 400
result-dir = /home/user/DATA/Sim_Results/Lighting/Dimming/TSCH/_AllNeigh/raw/_0dBm/_400
**.slotframeTable.slotframeTableSubFolder = "/home/user/DATA/Tables/AllNeigh/SlotframeTable/400/"
**.timeslotTemplate.timeslotTableSubFolder =  "/home/user/DATA/Tables/AllNeigh/TemplateTable/400/"
**.linkTable.linktableFilesSubFolder = "/home/user/DATA/Tables/AllNeigh/LinkTable/400/"
### Possible Transmit Power steps
# -25dBm	min power	0.0032mW
# -15dBm	3.16%		0.0316mW	
# -10dbm	10%			0.1mW
#  -7dBm	19.95%		0.1995mW
#  -5dBm	31.6%		0.316mW
#  -3dBm	50%			0.5mW
#  -1dBm	79%			0.79mW
#   0dbm	100%		1mW
**.wlan.phy.transmitterPower = 1mW


########################################################################################################################
########################################################################################################################
########################################################################################################################
########################################################################################################################
########################################################################################################################
########################################################################################################################
########################################################################################################################

[Config _20_3dBm]
**.numHosts = 20
result-dir = /home/user/DATA/Sim_Results/Lighting/Dimming/TSCH/_AllNeigh/raw/_3dBm/_20
**.slotframeTable.slotframeTableSubFolder = "/home/user/DATA/Tables/AllNeigh/SlotframeTable/20/"
**.timeslotTemplate.timeslotTableSubFolder =  "/home/user/DATA/Tables/AllNeigh/TemplateTable/20/"
**.linkTable.linktableFilesSubFolder = "/home/user/DATA/Tables/AllNeigh/LinkTable/20/"
### Possible Transmit Power steps
# -25dBm	min power	0.0032mW
# -15dBm	3.16%		0.0316mW	
# -10dbm	10%			0.1mW
#  -7dBm	19.95%		0.1995mW
#  -5dBm	31.6%		0.316mW
#  -3dBm	50%			0.5mW
#  -1dBm	79%			0.79mW
#   0dbm	100%		1mW
**.wlan.phy.transmitterPower = 0.5mW

[Config _50_3dBm]
**.numHosts = 50
result-dir = /home/user/DATA/Sim_Results/Lighting/Dimming/TSCH/_AllNeigh/raw/_3dBm/_50
**.slotframeTable.slotframeTableSubFolder = "/home/user/DATA/Tables/AllNeigh/SlotframeTable/50/"
**.timeslotTemplate.timeslotTableSubFolder =  "/home/user/DATA/Tables/AllNeigh/TemplateTable/50/"
**.linkTable.linktableFilesSubFolder = "/home/user/DATA/Tables/AllNeigh/LinkTable/50/"
### Possible Transmit Power steps
# -25dBm	min power	0.0032mW
# -15dBm	3.16%		0.0316mW	
# -10dbm	10%			0.1mW
#  -7dBm	19.95%		0.1995mW
#  -5dBm	31.6%		0.316mW
#  -3dBm	50%			0.5mW
#  -1dBm	79%			0.79mW
#   0dbm	100%		1mW
**.wlan.phy.transmitterPower = 0.5mW

[Config _100_3dBm]
**.numHosts = 100
result-dir = /home/user/DATA/Sim_Results/Lighting/Dimming/TSCH/_AllNeigh/raw/_3dBm/_100
**.slotframeTable.slotframeTableSubFolder = "/home/user/DATA/Tables/AllNeigh/SlotframeTable/100/"
**.timeslotTemplate.timeslotTableSubFolder =  "/home/user/DATA/Tables/AllNeigh/TemplateTable/100/"
**.linkTable.linktableFilesSubFolder = "/home/user/DATA/Tables/AllNeigh/LinkTable/100/"
### Possible Transmit Power steps
# -25dBm	min power	0.0032mW
# -15dBm	3.16%		0.0316mW	
# -10dbm	10%			0.1mW
#  -7dBm	19.95%		0.1995mW
#  -5dBm	31.6%		0.316mW
#  -3dBm	50%			0.5mW
#  -1dBm	79%			0.79mW
#   0dbm	100%		1mW
**.wlan.phy.transmitterPower = 0.5mW

[Config _150_3dBm]
**.numHosts = 150
result-dir = /home/user/DATA/Sim_Results/Lighting/Dimming/TSCH/_AllNeigh/raw/_3dBm/_150
**.slotframeTable.slotframeTableSubFolder = "/home/user/DATA/Tables/AllNeigh/SlotframeTable/150/"
**.timeslotTemplate.timeslotTableSubFolder =  "/home/user/DATA/Tables/AllNeigh/TemplateTable/150/"
**.linkTable.linktableFilesSubFolder = "/home/user/DATA/Tables/AllNeigh/LinkTable/150/"
### Possible Transmit Power steps
# -25dBm	min power	0.0032mW
# -15dBm	3.16%		0.0316mW	
# -10dbm	10%			0.1mW
#  -7dBm	19.95%		0.1995mW
#  -5dBm	31.6%		0.316mW
#  -3dBm	50%			0.5mW
#  -1dBm	79%			0.79mW
#   0dbm	100%		1mW
**.wlan.phy.transmitterPower = 0.5mW

[Config _200_3dBm]
**.numHosts = 200
result-dir = /home/user/DATA/Sim_Results/Lighting/Dimming/TSCH/_AllNeigh/raw/_3dBm/_200
**.slotframeTable.slotframeTableSubFolder = "/home/user/DATA/Tables/AllNeigh/SlotframeTable/200/"
**.timeslotTemplate.timeslotTableSubFolder =  "/home/user/DATA/Tables/AllNeigh/TemplateTable/200/"
**.linkTable.linktableFilesSubFolder = "/home/user/DATA/Tables/AllNeigh/LinkTable/200/"
### Possible Transmit Power steps
# -25dBm	min power	0.0032mW
# -15dBm	3.16%		0.0316mW	
# -10dbm	10%			0.1mW
#  -7dBm	19.95%		0.1995mW
#  -5dBm	31.6%		0.316mW
#  -3dBm	50%			0.5mW
#  -1dBm	79%			0.79mW
#   0dbm	100%		1mW
**.wlan.phy.transmitterPower = 0.5mW

[Config _240_3dBm]
**.numHosts = 240
result-dir = /home/user/DATA/Sim_Results/Lighting/Dimming/TSCH/_AllNeigh/raw/_3dBm/_240
**.slotframeTable.slotframeTableSubFolder = "/home/user/DATA/Tables/AllNeigh/SlotframeTable/240/"
**.timeslotTemplate.timeslotTableSubFolder =  "/home/user/DATA/Tables/AllNeigh/TemplateTable/240/"
**.linkTable.linktableFilesSubFolder = "/home/user/DATA/Tables/AllNeigh/LinkTable/240/"
### Possible Transmit Power steps
# -25dBm	min power	0.0032mW
# -15dBm	3.16%		0.0316mW	
# -10dbm	10%			0.1mW
#  -7dBm	19.95%		0.1995mW
#  -5dBm	31.6%		0.316mW
#  -3dBm	50%			0.5mW
#  -1dBm	79%			0.79mW
#   0dbm	100%		1mW
**.wlan.phy.transmitterPower = 0.5mW

[Config _400_3dBm]
**.numHosts = 400
result-dir = /home/user/DATA/Sim_Results/Lighting/Dimming/TSCH/_AllNeigh/raw/_3dBm/_400
**.slotframeTable.slotframeTableSubFolder = "/home/user/DATA/Tables/AllNeigh/SlotframeTable/400/"
**.timeslotTemplate.timeslotTableSubFolder =  "/home/user/DATA/Tables/AllNeigh/TemplateTable/400/"
**.linkTable.linktableFilesSubFolder = "/home/user/DATA/Tables/AllNeigh/LinkTable/400/"
### Possible Transmit Power steps
# -25dBm	min power	0.0032mW
# -15dBm	3.16%		0.0316mW	
# -10dbm	10%			0.1mW
#  -7dBm	19.95%		0.1995mW
#  -5dBm	31.6%		0.316mW
#  -3dBm	50%			0.5mW
#  -1dBm	79%			0.79mW
#   0dbm	100%		1mW
**.wlan.phy.transmitterPower = 0.5mW
########################################################################################################################
########################################################################################################################
########################################################################################################################
########################################################################################################################
########################################################################################################################
########################################################################################################################
########################################################################################################################


[Config _20_7dBm]
**.numHosts = 20
result-dir = /home/user/DATA/Sim_Results/Lighting/Dimming/TSCH/_AllNeigh/raw/_7dBm/_20
**.slotframeTable.slotframeTableSubFolder = "/home/user/DATA/Tables/AllNeigh/SlotframeTable/20/"
**.timeslotTemplate.timeslotTableSubFolder =  "/home/user/DATA/Tables/AllNeigh/TemplateTable/20/"
**.linkTable.linktableFilesSubFolder = "/home/user/DATA/Tables/AllNeigh/LinkTable/20/"
### Possible Transmit Power steps
# -25dBm	min power	0.0032mW
# -15dBm	3.16%		0.0316mW	
# -10dbm	10%			0.1mW
#  -7dBm	19.95%		0.1995mW
#  -5dBm	31.6%		0.316mW
#  -3dBm	50%			0.5mW
#  -1dBm	79%			0.79mW
#   0dbm	100%		1mW
**.wlan.phy.transmitterPower = 0.1995mW

[Config _50_7dBm]
**.numHosts = 50
result-dir = /home/user/DATA/Sim_Results/Lighting/Dimming/TSCH/_AllNeigh/raw/_7dBm/_50
**.slotframeTable.slotframeTableSubFolder = "/home/user/DATA/Tables/AllNeigh/SlotframeTable/50/"
**.timeslotTemplate.timeslotTableSubFolder =  "/home/user/DATA/Tables/AllNeigh/TemplateTable/50/"
**.linkTable.linktableFilesSubFolder = "/home/user/DATA/Tables/AllNeigh/LinkTable/50/"
### Possible Transmit Power steps
# -25dBm	min power	0.0032mW
# -15dBm	3.16%		0.0316mW	
# -10dbm	10%			0.1mW
#  -7dBm	19.95%		0.1995mW
#  -5dBm	31.6%		0.316mW
#  -3dBm	50%			0.5mW
#  -1dBm	79%			0.79mW
#   0dbm	100%		1mW
**.wlan.phy.transmitterPower = 0.1995mW

[Config _100_7dBm]
**.numHosts = 100
result-dir = /home/user/DATA/Sim_Results/Lighting/Dimming/TSCH/_AllNeigh/raw/_7dBm/_100
**.slotframeTable.slotframeTableSubFolder = "/home/user/DATA/Tables/AllNeigh/SlotframeTable/100/"
**.timeslotTemplate.timeslotTableSubFolder =  "/home/user/DATA/Tables/AllNeigh/TemplateTable/100/"
**.linkTable.linktableFilesSubFolder = "/home/user/DATA/Tables/AllNeigh/LinkTable/100/"
### Possible Transmit Power steps
# -25dBm	min power	0.0032mW
# -15dBm	3.16%		0.0316mW	
# -10dbm	10%			0.1mW
#  -7dBm	19.95%		0.1995mW
#  -5dBm	31.6%		0.316mW
#  -3dBm	50%			0.5mW
#  -1dBm	79%			0.79mW
#   0dbm	100%		1mW
**.wlan.phy.transmitterPower = 0.1995mW

[Config _150_7dBm]
**.numHosts = 150
result-dir = /home/user/DATA/Sim_Results/Lighting/Dimming/TSCH/_AllNeigh/raw/_7dBm/_150
**.slotframeTable.slotframeTableSubFolder = "/home/user/DATA/Tables/AllNeigh/SlotframeTable/150/"
**.timeslotTemplate.timeslotTableSubFolder =  "/home/user/DATA/Tables/AllNeigh/TemplateTable/150/"
**.linkTable.linktableFilesSubFolder = "/home/user/DATA/Tables/AllNeigh/LinkTable/150/"
### Possible Transmit Power steps
# -25dBm	min power	0.0032mW
# -15dBm	3.16%		0.0316mW	
# -10dbm	10%			0.1mW
#  -7dBm	19.95%		0.1995mW
#  -5dBm	31.6%		0.316mW
#  -3dBm	50%			0.5mW
#  -1dBm	79%			0.79mW
#   0dbm	100%		1mW
**.wlan.phy.transmitterPower = 0.1995mW

[Config _200_7dBm]
**.numHosts = 200
result-dir = /home/user/DATA/Sim_Results/Lighting/Dimming/TSCH/_AllNeigh/raw/_7dBm/_200
**.slotframeTable.slotframeTableSubFolder = "/home/user/DATA/Tables/AllNeigh/SlotframeTable/200/"
**.timeslotTemplate.timeslotTableSubFolder =  "/home/user/DATA/Tables/AllNeigh/TemplateTable/200/"
**.linkTable.linktableFilesSubFolder = "/home/user/DATA/Tables/AllNeigh/LinkTable/200/"
### Possible Transmit Power steps
# -25dBm	min power	0.0032mW
# -15dBm	3.16%		0.0316mW	
# -10dbm	10%			0.1mW