[General]



#ned-path = /home/user/Workspace/DEWI/DEWI/simulations/;/home/user/Workspace/DEWI/DEWI/src
network = dewi.simulations.UseCase1_Lighting.Dimming.nonBeaconCSMA.Network
num-rngs = 2
repeat = 10000
cmdenv-express-mode = true
tkenv-plugin-path = ../../../Etc/plugins
description = "Visualization"
sim-time-limit = 15d
#Debug
parallel-simulation = false
**.debug = false
**.coreDebug = false

output-vector-file = ${resultdir}/vector/${runid}.vec
output-scalar-file = ${resultdir}/scalar/${runid}.sca
<<<<<<< HEAD
result-dir = Z:\Visualization\Dimming\Dimming\Test
=======
#result-dir = Z:\Visualization\Test
>>>>>>> Mac
#Number of Nodes
#**.numHosts = exponential(${mean = 10 step 10})

###########################################################
##############Configure NodeLocation#######################
###########################################################
*.lamp[*].mobility.distanceToWall = 2.5m
*.lamp[*].mobility.distanceToCeiling = 0.3m

*.lamp[*].X = 80m
*.lamp[*].Y = 40m
*.lamp[*].Z = 3.3m


**.lightSwitch.mobility.initFromDisplayString = false
<<<<<<< HEAD
**.lightSwitch.mobility.initialX = 0m
**.lightSwitch.mobility.initialY = 20m
**.lightSwitch.mobility.initialZ = 1.2m
=======

>>>>>>> Mac
#*.lamp[*].mobility.numHosts = 20

###########################################################
##############   Configure DataCenter #####################
###########################################################
**.DataCenter.recordValues = true



###########################################################
##############Configure ChannelControl#####################
###########################################################
**.channelControl.coreDebug = false
**.channelControl.alpha = 3 #// path loss coefficient
**.channelControl.carrierFrequency = 2.4GHz #// base carrier frequency of all the channels (in Hz)
**.channelControl.maxInterferenceDistance = -1m  ##6m for 240 nodes ##26m 16 nodes
**.channelControl.numChannels = 16 #// number of radio channels (frequencies)
**.channelControl.pMax = 1mW #// maximum sending power used for this network (in mW)
**.channelControl.propagationModel = "NakagamiModel" #("FreeSpaceModel","TwoRayGroundModel","RiceModel","RayleighModel","NakagamiModel","LogNormalShadowingModel")
**.channelControl.sat = -95dBm #// signal attenuation threshold (in dBm)
**.channelNumber = 11

###########################################################
##############Configure Display############################
###########################################################

#**.disp.alpha = 3
#**.disp.carrierFrequency = 2.4GHz
#**.disp.debug = default
#**.disp.sat = -95dBm
#**.disp.sensitivity = -95dBm
#**.disp.transmitterPower = 1mW
#
############################################################
###############Configure Battery############################
############################################################
#**.battery.ConsumedVector = true
#**.battery.capacity = 2850
#**.battery.nominal = 2850
#**.battery.endSimulationIfexhausted = false
#**.battery.publishDelta = 0.01
#**.battery.publishTime = 10s
#**.battery.resolution = 1s
#**.battery.voltage = 3
#**.battery.*_EnergyConsumed_*.vector-recording = false


###########################################################
###########Configure WLAN Module###########################
###########################################################

#Configure WLAN Queue
**.wlan.ifqType = "DropTailQueue"
**.ifq.frameCapacity = 50
**.rxSetupTime = 0.00108s

#Configure WLAN PHY
**.wlan.phy.usage_radio_recv = 23mA
**.wlan.phy.usage_radio_idle = 0.021mA
**.wlan.phy.usage_radio_sleep = 0.001mA

###########################################################
##############Configure PHYLayer###########################
###########################################################

#Configure PHY-Layer
**.wlan.phy.channelNumber = 11
**.wlan.phy.NoBitError = false

**.wlan.phy.sensitivity = -95dBm #[dBm]
**.wlan.phy.receptionThreshold = -110dBm
**.wlan.phy.thermalNoise = -110dBm #[dBm]
**.wlan.phy.pathLossAlpha = 3
**.wlan.phy.TransmissionAntennaGainIndB = 0dB
**.wlan.phy.ReceiveAntennaGainIndB = 0dB
**.wlan.phy.SystemLossFactor = 0dB
**.wlan.phy.nak_m = 2.9
**.wlan.phy.aMaxPHYPacketSize = 127
**.wlan.phy.aTurnaroundTime = default #312.5
**.phy.snirThreshold = 4dB

###########################################################
##############Configure MAC Layer##########################
###########################################################

**.wlan.mac.useMACAcks = true
**.wlan.mac.sifs = default #0.005001s #0.005s

**.wlan.mac.macMaxFrameRetries = 7
**.wlan.mac.macAckWaitDuration = default
**.wlan.mac.ccaDetectionTime = 0.000128s
**.wlan.mac.rxSetupTime = default
**.wlan.mac.aTurnaroundTime = default #0.005s
**.wlan.mac.aUnitBackoffPeriod = default
**.wlan.mac.ackLength = default
**.wlan.mac.headerLength = default
**.wlan.mac.backoffMethod = "exponential"
**.wlan.mac.contentionWindow = 2
**.wlan.mac.macMinBE = default
**.wlan.mac.macMaxBE = default

###########################################################
##############Configure NotificationBoard##################
###########################################################



###########################################################
##############Configure InterfaceTable#####################
###########################################################

**.interfaceTable.displayAddresses = false

###########################################################
##############Configure NetworkConfigurator################
###########################################################

**.configurator.addDefaultRoutes = false
**.configurator.addStaticRoutes = false
**.configurator.addSubnetRoutes = false
**.configurator.assignAddresses = true
**.configurator.assignDisjunctSubnetAddresses = true
**.configurator.dumpAddresses = false
**.configurator.dumpConfig = "ConfigTest"
**.configurator.dumpLinks = false
**.configurator.dumpRoutes = false
**.configurator.dumpTopology = false
**.configurator.optimizeRoutes = false



###########################################################
####################Configure UDPApp#######################
###########################################################
####Sender####


**.lightSwitch.udpAppType = "UDPLightSwitch"
**.lightSwitch.numUdpApps = 1


**.lightSwitch.udpApp[0].excludeLocalDestAddresses = true
**.lightSwitch.udpApp[0].chooseDestAddrMode = "perBurst"
**.lightSwitch.udpApp[0].destAddrRNG = 1
**.lightSwitch.udpApp[0].localPort = 1234
**.lightSwitch.udpApp[0].destPort = 1234
**.lightSwitch.udpApp[0].startTime = 5s
<<<<<<< HEAD
**.lightSwitch.udpApp[0].messageLength = 72B
=======
**.lightSwitch.udpApp[0].stopTime = 7.1s
**.lightSwitch.udpApp[0].messageLength = 72B
**.lightSwitch.udpApp[0].burstDuration = 2s
**.lightSwitch.udpApp[0].sleepDuration = 3600s
**.lightSwitch.udpApp[0].sendInterval = 0.1s
>>>>>>> Mac
**.lightSwitch.udpApp[0].delayLimit = 200s
**.lightSwitch.udpApp[0].outputInterface = "wlan"
**.lightSwitch.udpApp[0].outputInterfaceMulticastBroadcast = "wlan"
**.lightSwitch.udpApp[0].setBroadcast = true

##all other nodes##
##all other nodes##
**.lamp[*].udpAppType = "UDPLamp"
**.lamp[*].numUdpApps = 1
**.lamp[*].udpApp[0].localPort = 1234
**.lamp[*].udpApp[0].destPort = 1234
**.lamp[*].udpApp[0].messageLength = 72B #lenght in Bytes
**.lamp[*].udpApp[0].sendInterval = 5s  #+ uniform(-0.001s,0.001s,1)
**.lamp[*].udpApp[0].burstDuration = 2s #uniform(1s,4s,1)
**.lamp[*].udpApp[0].stopTime = -1s
**.lamp[*].udpApp[0].startTime = 5s
**.lamp[*].udpApp[0].delayLimit = 200s
**.lamp[*].udpApp[0].setBroadcast = true
**.lamp[*].udpApp[0].outputInterface = "wlan"
**.lamp[*].udpApp[0].outputInterfaceMulticastBroadcast = "wlan"
**.lamp[*].udpApp[0].isSource = false
**.lamp[*].udpApp[0].isSink = true
**.lamp[*].udpApp[0].resendBroadcast = true
<<<<<<< HEAD
**.Method = "NONE"
=======
**.Method = "PROBABILISTIC"
**.PThreshold = 0.65
>>>>>>> Mac

**.udpApp[0].*_E2ED_*.vector-recording = true

**.udpApp[0].*_HopCount_*.vector-recording = true
#**.udpApp[0].*_HopCount_*.with-akaroa = true

**.udpApp[0].*_ReceivedMSG_*.scalar-recording = true
#**.udpApp[0].*_ReceivedMSG_*.with-akaroa = true
**.udpApp[0].*_ReMSG_*.scalar-recording = true
#**.udpApp[0].*_ReMSG_*.with-akaroa = true
**.udpApp[0].*_DRMSG_*.scalar-recording = true
#**.udpApp[0].*_DRMSG_*.with-akaroa = true
**.lightSwitch.udpApp[0].*_MSGSent_*.scalar-recording = true
#**.lightSwitch.udpApp[0].*_MSGSent_*.with-akaroa = true
**.lightSwitch.udpApp[0].*_BurstsSent_*.scalar-recording = true
#**.lightSwitch.udpApp[0].*_BurstsSent_*.with-akaroa = true

**.**_numCollision_*.scalar-recording = true
#**.udpApp[0].*_numCollision_*.with-akaroa = true
**.**_nbDroppedFrames_*.scalar-recording = true
#**.udpApp[0].*_nbDroppedFrames_*.with-akaroa = true
**.**_nbRxFrames_*.scalar-recording = false
#**.udpApp[0].*_nbRxFrames_*.with-akaroa = true
**.**_nbTxFrames_*.scalar-recording = true
#**.udpApp[0].*_nbTxFrames_*.with-akaroa = true
**.**_nbRxFramesBroadcast_*.scalar-recording = true


**.vector-recording = false
#**.with-akaroa = false


###Configure Destination Addess
**.lightSwitch.udpApp[0].destAddresses =  "255.255.255.255" #moduleListByPath("**")




##############################################################################
#       Output vectors                                                       #
##############################################################################
#**.DublicatedPk.result-recording-modes = true
#**.ReBroadcastPk.result-recording-modes = true
#**.sentPk. = true
**.scalar-recording = false
#**.End-to-end delay.vector-recording = true
#**.Mean end-to-end delay.vector-recording = true
#**.vector-recording = false
#**.result-recording-modes = false

<<<<<<< HEAD
[Config _20_0dBm_LeftMiddle_Dimming]
**.numHosts = 20
#result-dir = /home/user/DATA/Sim_Results/Lighting/Dimming/Non_Beacon_CSMA/None/LeftMiddle/_100ms/_10BackoffRetries/raw/_0dBm/_20
result-dir = Z:\Visualization\Dimming\_20Nodes\_0dBm\LeftMiddle
=======
[Config _20_0dBm]
**.numHosts = 20
#result-dir = /home/user/DATA/Sim_Results/Lighting/Dimming/Non_Beacon_CSMA/None/LeftMiddle/_100ms/_10BackoffRetries/raw/_0dBm/_20
result-dir = Z:\Visualization\Probabilistic\Dimming\_20Nodes\_0dBm\LeftMiddle
>>>>>>> Mac
### Possible Transmit Power steps
# -25dBm	min power	0.0032mW
# -15dBm	3.16%		0.0316mW	
# -10dbm	10%			0.1mW
#  -7dBm	19.95%		0.1995mW
#  -5dBm	31.6%		0.316mW
#  -3dBm	50%			0.5mW
#  -1dBm	79%			0.79mW
#   0dbm	100%		1mW
**.wlan.phy.transmitterPower = 1mW
**.visualization = true
**.lightSwitch.mobility.initialX = 0m
**.lightSwitch.mobility.initialY = 20m
<<<<<<< HEAD
**.lightSwitch.udpApp[0].stopTime = 7.1s
**.lightSwitch.udpApp[0].burstDuration = 2s
**.lightSwitch.udpApp[0].sleepDuration = 3600s
**.lightSwitch.udpApp[0].sendInterval = 0.1s

[Config _20_10dBm_LeftMiddle_Dimming]
**.numHosts = 20
#result-dir = /home/user/DATA/Sim_Results/Lighting/Dimming/Non_Beacon_CSMA/None/LeftMiddle/_100ms/_10BackoffRetries/raw/_0dBm/_20
result-dir = Z:\Visualization\Dimming\_20Nodes\_10dBm\LeftMiddle
=======
**.lightSwitch.mobility.initialZ = 1.2m

[Config _20_10dBm]
**.numHosts = 20
#result-dir = /home/user/DATA/Sim_Results/Lighting/Dimming/Non_Beacon_CSMA/None/LeftMiddle/_100ms/_10BackoffRetries/raw/_0dBm/_20
result-dir = Z:\Visualization\Probabilistic\Dimming\_20Nodes\_10dBm\LeftMiddle
>>>>>>> Mac
### Possible Transmit Power steps
# -25dBm	min power	0.0032mW
# -15dBm	3.16%		0.0316mW	
# -10dbm	10%			0.1mW
#  -7dBm	19.95%		0.1995mW
#  -5dBm	31.6%		0.316mW
#  -3dBm	50%			0.5mW
#  -1dBm	79%			0.79mW
#   0dbm	100%		1mW
**.wlan.phy.transmitterPower = 0.1mW
**.visualization = true
**.lightSwitch.mobility.initialX = 0m
**.lightSwitch.mobility.initialY = 20m
<<<<<<< HEAD
**.lightSwitch.udpApp[0].stopTime = 7.1s
**.lightSwitch.udpApp[0].burstDuration = 2s
**.lightSwitch.udpApp[0].sleepDuration = 3600s
**.lightSwitch.udpApp[0].sendInterval = 0.1s

[Config _20_25dBm_LeftMiddle_Dimming]
**.numHosts = 20
#result-dir = /home/user/DATA/Sim_Results/Lighting/Dimming/Non_Beacon_CSMA/None/LeftMiddle/_100ms/_10BackoffRetries/raw/_0dBm/_20
result-dir = Z:\Visualization\Dimming\_20Nodes\_25dBm\LeftMiddle
=======
**.lightSwitch.mobility.initialZ = 1.2m

[Config _20_25dBm]
**.numHosts = 20
#result-dir = /home/user/DATA/Sim_Results/Lighting/Dimming/Non_Beacon_CSMA/None/LeftMiddle/_100ms/_10BackoffRetries/raw/_0dBm/_20
result-dir = Z:\Visualization\Probabilistic\Dimming\_20Nodes\_25dBm\LeftMiddle
>>>>>>> Mac
### Possible Transmit Power steps
# -25dBm	min power	0.0032mW
# -15dBm	3.16%		0.0316mW	
# -10dbm	10%			0.1mW
#  -7dBm	19.95%		0.1995mW
#  -5dBm	31.6%		0.316mW
#  -3dBm	50%			0.5mW
#  -1dBm	79%			0.79mW
#   0dbm	100%		1mW
**.wlan.phy.transmitterPower = 0.0032mW
**.visualization = true
**.lightSwitch.mobility.initialX = 0m
**.lightSwitch.mobility.initialY = 20m
<<<<<<< HEAD
**.lightSwitch.udpApp[0].stopTime = 7.1s
**.lightSwitch.udpApp[0].burstDuration = 2s
**.lightSwitch.udpApp[0].sleepDuration = 3600s
**.lightSwitch.udpApp[0].sendInterval = 0.1s

[Config _200_0dBm_LeftMiddle_Dimming]
**.numHosts = 200
#result-dir = /home/user/DATA/Sim_Results/Lighting/Dimming/Non_Beacon_CSMA/None/LeftMiddle/_100ms/_10BackoffRetries/raw/_0dBm/_20
result-dir = Z:\Visualization\Dimming\_200Nodes\_0dBm\LeftMiddle
=======
**.lightSwitch.mobility.initialZ = 1.2m

[Config _200_0dBm]
**.numHosts = 200
#result-dir = /home/user/DATA/Sim_Results/Lighting/Dimming/Non_Beacon_CSMA/None/LeftMiddle/_100ms/_10BackoffRetries/raw/_0dBm/_20
result-dir = Z:\Visualization\Probabilistic\Dimming\_200Nodes\_0dBm\LeftMiddle
>>>>>>> Mac
### Possible Transmit Power steps
# -25dBm	min power	0.0032mW
# -15dBm	3.16%		0.0316mW	
# -10dbm	10%			0.1mW
#  -7dBm	19.95%		0.1995mW
#  -5dBm	31.6%		0.316mW
#  -3dBm	50%			0.5mW
#  -1dBm	79%			0.79mW
#   0dbm	100%		1mW
**.wlan.phy.transmitterPower = 1mW
**.visualization = true
**.lightSwitch.mobility.initialX = 0m
**.lightSwitch.mobility.initialY = 20m
<<<<<<< HEAD
**.lightSwitch.udpApp[0].stopTime = 7.1s
**.lightSwitch.udpApp[0].burstDuration = 2s
**.lightSwitch.udpApp[0].sleepDuration = 3600s
**.lightSwitch.udpApp[0].sendInterval = 0.1s

[Config _200_10dBm_LeftMiddle_Dimming]
**.numHosts = 200
#result-dir = /home/user/DATA/Sim_Results/Lighting/Dimming/Non_Beacon_CSMA/None/LeftMiddle/_100ms/_10BackoffRetries/raw/_0dBm/_20
result-dir = Z:\Visualization\Dimming\_200Nodes\_10dBm\LeftMiddle
=======
**.lightSwitch.mobility.initialZ = 1.2m

[Config _200_10dBm]
**.numHosts = 200
#result-dir = /home/user/DATA/Sim_Results/Lighting/Dimming/Non_Beacon_CSMA/None/LeftMiddle/_100ms/_10BackoffRetries/raw/_0dBm/_20
result-dir = Z:\Visualization\Probabilistic\Dimming\_200Nodes\_10dBm\LeftMiddle
>>>>>>> Mac
### Possible Transmit Power steps
# -25dBm	min power	0.0032mW
# -15dBm	3.16%		0.0316mW	
# -10dbm	10%			0.1mW
#  -7dBm	19.95%		0.1995mW
#  -5dBm	31.6%		0.316mW
#  -3dBm	50%			0.5mW
#  -1dBm	79%			0.79mW
#   0dbm	100%		1mW
**.wlan.phy.transmitterPower = 0.1mW
**.visualization = true
**.lightSwitch.mobility.initialX = 0m
**.lightSwitch.mobility.initialY = 20m
<<<<<<< HEAD
**.lightSwitch.udpApp[0].stopTime = 7.1s
**.lightSwitch.udpApp[0].burstDuration = 2s
**.lightSwitch.udpApp[0].sleepDuration = 3600s
**.lightSwitch.udpApp[0].sendInterval = 0.1s

[Config _200_25dBm_LeftMiddle_Dimming]
**.numHosts = 200
#result-dir = /home/user/DATA/Sim_Results/Lighting/Dimming/Non_Beacon_CSMA/None/LeftMiddle/_100ms/_10BackoffRetries/raw/_0dBm/_20
result-dir = Z:\Visualization\Dimming\_200Nodes\_25dBm\LeftMiddle
=======
**.lightSwitch.mobility.initialZ = 1.2m

[Config _200_25dBm]
**.numHosts = 200
#result-dir = /home/user/DATA/Sim_Results/Lighting/Dimming/Non_Beacon_CSMA/None/LeftMiddle/_100ms/_10BackoffRetries/raw/_0dBm/_20
result-dir = Z:\Visualization\Probabilistic\Dimming\_200Nodes\_25dBm\LeftMiddle
>>>>>>> Mac
### Possible Transmit Power steps
# -25dBm	min power	0.0032mW
# -15dBm	3.16%		0.0316mW	
# -10dbm	10%			0.1mW
#  -7dBm	19.95%		0.1995mW
#  -5dBm	31.6%		0.316mW
#  -3dBm	50%			0.5mW
#  -1dBm	79%			0.79mW
#   0dbm	100%		1mW
**.wlan.phy.transmitterPower = 0.0032mW
**.visualization = true
**.lightSwitch.mobility.initialX = 0m
**.lightSwitch.mobility.initialY = 20m
<<<<<<< HEAD
**.lightSwitch.udpApp[0].stopTime = 7.1s
**.lightSwitch.udpApp[0].burstDuration = 2s
**.lightSwitch.udpApp[0].sleepDuration = 3600s
**.lightSwitch.udpApp[0].sendInterval = 0.1s

[Config _400_0dBm_LeftMiddle_Dimming]
**.numHosts = 400
#result-dir = /home/user/DATA/Sim_Results/Lighting/Dimming/Non_Beacon_CSMA/None/LeftMiddle/_100ms/_10BackoffRetries/raw/_0dBm/_20
result-dir = Z:\Visualization\Dimming\_400Nodes\_0dBm\LeftMiddle
=======
**.lightSwitch.mobility.initialZ = 1.2m

[Config _400_0dBm]
**.numHosts = 400
#result-dir = /home/user/DATA/Sim_Results/Lighting/Dimming/Non_Beacon_CSMA/None/LeftMiddle/_100ms/_10BackoffRetries/raw/_0dBm/_20
result-dir = Z:\Visualization\Probabilistic\Dimming\_400Nodes\_0dBm\LeftMiddle
>>>>>>> Mac
### Possible Transmit Power steps
# -25dBm	min power	0.0032mW
# -15dBm	3.16%		0.0316mW	
# -10dbm	10%			0.1mW
#  -7dBm	19.95%		0.1995mW
#  -5dBm	31.6%		0.316mW
#  -3dBm	50%			0.5mW
#  -1dBm	79%			0.79mW
#   0dbm	100%		1mW
**.wlan.phy.transmitterPower = 1mW
**.visualization = true
**.lightSwitch.mobility.initialX = 0m
**.lightSwitch.mobility.initialY = 20m
<<<<<<< HEAD
**.lightSwitch.udpApp[0].stopTime = 7.1s
**.lightSwitch.udpApp[0].burstDuration = 2s
**.lightSwitch.udpApp[0].sleepDuration = 3600s
**.lightSwitch.udpApp[0].sendInterval = 0.1s

[Config _400_10dBm_LeftMiddle_Dimming]
**.numHosts = 400
#result-dir = /home/user/DATA/Sim_Results/Lighting/Dimming/Non_Beacon_CSMA/None/LeftMiddle/_100ms/_10BackoffRetries/raw/_0dBm/_20
result-dir = Z:\Visualization\Dimming\_400Nodes\_10dBm\LeftMiddle
=======
**.lightSwitch.mobility.initialZ = 1.2m

[Config _400_10dBm]
**.numHosts = 400
#result-dir = /home/user/DATA/Sim_Results/Lighting/Dimming/Non_Beacon_CSMA/None/LeftMiddle/_100ms/_10BackoffRetries/raw/_0dBm/_20
result-dir = Z:\Visualization\Probabilistic\Dimming\_400Nodes\_10dBm\LeftMiddle
>>>>>>> Mac
### Possible Transmit Power steps
# -25dBm	min power	0.0032mW
# -15dBm	3.16%		0.0316mW	
# -10dbm	10%			0.1mW
#  -7dBm	19.95%		0.1995mW
#  -5dBm	31.6%		0.316mW
#  -3dBm	50%			0.5mW
#  -1dBm	79%			0.79mW
#   0dbm	100%		1mW
**.wlan.phy.transmitterPower = 0.1mW
**.visualization = true
**.lightSwitch.mobility.initialX = 0m
**.lightSwitch.mobility.initialY = 20m
<<<<<<< HEAD
**.lightSwitch.udpApp[0].stopTime = 7.1s
**.lightSwitch.udpApp[0].burstDuration = 2s
**.lightSwitch.udpApp[0].sleepDuration = 3600s
**.lightSwitch.udpApp[0].sendInterval = 0.1s

[Config _400_25dBm_LeftMiddle_Dimming]
**.numHosts = 400
#result-dir = /home/user/DATA/Sim_Results/Lighting/Dimming/Non_Beacon_CSMA/None/LeftMiddle/_100ms/_10BackoffRetries/raw/_0dBm/_20
result-dir = Z:\Visualization\Dimming\_400Nodes\_25dBm\LeftMiddle
=======
**.lightSwitch.mobility.initialZ = 1.2m

[Config _400_25dBm]
**.numHosts = 400
#result-dir = /home/user/DATA/Sim_Results/Lighting/Dimming/Non_Beacon_CSMA/None/LeftMiddle/_100ms/_10BackoffRetries/raw/_0dBm/_20
result-dir = Z:\Visualization\Probabilistic\Dimming\_400Nodes\_25dBm\LeftMiddle
>>>>>>> Mac
### Possible Transmit Power steps
# -25dBm	min power	0.0032mW
# -15dBm	3.16%		0.0316mW	
# -10dbm	10%			0.1mW
#  -7dBm	19.95%		0.1995mW
#  -5dBm	31.6%		0.316mW
#  -3dBm	50%			0.5mW
#  -1dBm	79%			0.79mW
#   0dbm	100%		1mW
**.wlan.phy.transmitterPower = 0.0032mW
**.visualization = true
**.lightSwitch.mobility.initialX = 0m
**.lightSwitch.mobility.initialY = 20m
<<<<<<< HEAD
**.lightSwitch.udpApp[0].stopTime = 7.1s
**.lightSwitch.udpApp[0].burstDuration = 2s
**.lightSwitch.udpApp[0].sleepDuration = 3600s
**.lightSwitch.udpApp[0].sendInterval = 0.1s

[Config _20_0dBm_TopLeftCorner_Dimming]
**.numHosts = 20
#result-dir = /home/user/DATA/Sim_Results/Lighting/Dimming/Non_Beacon_CSMA/None/TopLeftCorner/_100ms/_10BackoffRetries/raw/_0dBm/_20
result-dir = Z:\Visualization\Dimming\_20Nodes\_0dBm\TopLeftCorner
### Possible Transmit Power steps
# -25dBm	min power	0.0032mW
# -15dBm	3.16%		0.0316mW	
# -10dbm	10%			0.1mW
#  -7dBm	19.95%		0.1995mW
#  -5dBm	31.6%		0.316mW
#  -3dBm	50%			0.5mW
#  -1dBm	79%			0.79mW
#   0dbm	100%		1mW
**.wlan.phy.transmitterPower = 1mW
**.visualization = true
**.lightSwitch.mobility.initialX = 0m
**.lightSwitch.mobility.initialY = 0m
**.lightSwitch.udpApp[0].stopTime = 7.1s
**.lightSwitch.udpApp[0].burstDuration = 2s
**.lightSwitch.udpApp[0].sleepDuration = 3600s
**.lightSwitch.udpApp[0].sendInterval = 0.1s

[Config _20_10dBm_TopLeftCorner_Dimming]
**.numHosts = 20
#result-dir = /home/user/DATA/Sim_Results/Lighting/Dimming/Non_Beacon_CSMA/None/TopLeftCorner/_100ms/_10BackoffRetries/raw/_0dBm/_20
result-dir = Z:\Visualization\Dimming\_20Nodes\_10dBm\TopLeftCorner
### Possible Transmit Power steps
# -25dBm	min power	0.0032mW
# -15dBm	3.16%		0.0316mW	
# -10dbm	10%			0.1mW
#  -7dBm	19.95%		0.1995mW
#  -5dBm	31.6%		0.316mW
#  -3dBm	50%			0.5mW
#  -1dBm	79%			0.79mW
#   0dbm	100%		1mW
**.wlan.phy.transmitterPower = 0.1mW
**.visualization = true
**.lightSwitch.mobility.initialX = 0m
**.lightSwitch.mobility.initialY = 0m
**.lightSwitch.udpApp[0].stopTime = 7.1s
**.lightSwitch.udpApp[0].burstDuration = 2s
**.lightSwitch.udpApp[0].sleepDuration = 3600s
**.lightSwitch.udpApp[0].sendInterval = 0.1s

[Config _20_25dBm_TopLeftCorner_Dimming]
**.numHosts = 20
#result-dir = /home/user/DATA/Sim_Results/Lighting/Dimming/Non_Beacon_CSMA/None/TopLeftCorner/_100ms/_10BackoffRetries/raw/_0dBm/_20
result-dir = Z:\Visualization\Dimming\_20Nodes\_25dBm\TopLeftCorner
### Possible Transmit Power steps
# -25dBm	min power	0.0032mW
# -15dBm	3.16%		0.0316mW	
# -10dbm	10%			0.1mW
#  -7dBm	19.95%		0.1995mW
#  -5dBm	31.6%		0.316mW
#  -3dBm	50%			0.5mW
#  -1dBm	79%			0.79mW
#   0dbm	100%		1mW
**.wlan.phy.transmitterPower = 0.0032mW
**.visualization = true
**.lightSwitch.mobility.initialX = 0m
**.lightSwitch.mobility.initialY = 0m
**.lightSwitch.udpApp[0].stopTime = 7.1s
**.lightSwitch.udpApp[0].burstDuration = 2s
**.lightSwitch.udpApp[0].sleepDuration = 3600s
**.lightSwitch.udpApp[0].sendInterval = 0.1s

[Config _200_0dBm_TopLeftCorner_Dimming]
**.numHosts = 200
#result-dir = /home/user/DATA/Sim_Results/Lighting/Dimming/Non_Beacon_CSMA/None/TopLeftCorner/_100ms/_10BackoffRetries/raw/_0dBm/_20
result-dir = Z:\Visualization\Dimming\_200Nodes\_0dBm\TopLeftCorner
### Possible Transmit Power steps
# -25dBm	min power	0.0032mW
# -15dBm	3.16%		0.0316mW	
# -10dbm	10%			0.1mW
#  -7dBm	19.95%		0.1995mW
#  -5dBm	31.6%		0.316mW
#  -3dBm	50%			0.5mW
#  -1dBm	79%			0.79mW
#   0dbm	100%		1mW
**.wlan.phy.transmitterPower = 1mW
**.visualization = true
**.lightSwitch.mobility.initialX = 0m
**.lightSwitch.mobility.initialY = 0m
**.lightSwitch.udpApp[0].stopTime = 7.1s
**.lightSwitch.udpApp[0].burstDuration = 2s
**.lightSwitch.udpApp[0].sleepDuration = 3600s
**.lightSwitch.udpApp[0].sendInterval = 0.1s

[Config _200_10dBm_TopLeftCorner_Dimming]
**.numHosts = 200
#result-dir = /home/user/DATA/Sim_Results/Lighting/Dimming/Non_Beacon_CSMA/None/TopLeftCorner/_100ms/_10BackoffRetries/raw/_0dBm/_20
result-dir = Z:\Visualization\Dimming\_200Nodes\_10dBm\TopLeftCorner
### Possible Transmit Power steps
# -25dBm	min power	0.0032mW
# -15dBm	3.16%		0.0316mW	
# -10dbm	10%			0.1mW
#  -7dBm	19.95%		0.1995mW
#  -5dBm	31.6%		0.316mW
#  -3dBm	50%			0.5mW
#  -1dBm	79%			0.79mW
#   0dbm	100%		1mW
**.wlan.phy.transmitterPower = 0.1mW
**.visualization = true
**.lightSwitch.mobility.initialX = 0m
**.lightSwitch.mobility.initialY = 0m
**.lightSwitch.udpApp[0].stopTime = 7.1s
**.lightSwitch.udpApp[0].burstDuration = 2s
**.lightSwitch.udpApp[0].sleepDuration = 3600s
**.lightSwitch.udpApp[0].sendInterval = 0.1s

[Config _200_25dBm_TopLeftCorner_Dimming]
**.numHosts = 200
#result-dir = /home/user/DATA/Sim_Results/Lighting/Dimming/Non_Beacon_CSMA/None/TopLeftCorner/_100ms/_10BackoffRetries/raw/_0dBm/_20
result-dir = Z:\Visualization\Dimming\_200Nodes\_25dBm\TopLeftCorner
### Possible Transmit Power steps
# -25dBm	min power	0.0032mW
# -15dBm	3.16%		0.0316mW	
# -10dbm	10%			0.1mW
#  -7dBm	19.95%		0.1995mW
#  -5dBm	31.6%		0.316mW
#  -3dBm	50%			0.5mW
#  -1dBm	79%			0.79mW
#   0dbm	100%		1mW
**.wlan.phy.transmitterPower = 0.0032mW
**.visualization = true
**.lightSwitch.mobility.initialX = 0m
**.lightSwitch.mobility.initialY = 0m
**.lightSwitch.udpApp[0].stopTime = 7.1s
**.lightSwitch.udpApp[0].burstDuration = 2s
**.lightSwitch.udpApp[0].sleepDuration = 3600s
**.lightSwitch.udpApp[0].sendInterval = 0.1s

[Config _400_0dBm_TopLeftCorner_Dimming]
**.numHosts = 400
#result-dir = /home/user/DATA/Sim_Results/Lighting/Dimming/Non_Beacon_CSMA/None/TopLeftCorner/_100ms/_10BackoffRetries/raw/_0dBm/_20
result-dir = Z:\Visualization\Dimming\_400Nodes\_0dBm\TopLeftCorner
### Possible Transmit Power steps
# -25dBm	min power	0.0032mW
# -15dBm	3.16%		0.0316mW	
# -10dbm	10%			0.1mW
#  -7dBm	19.95%		0.1995mW
#  -5dBm	31.6%		0.316mW
#  -3dBm	50%			0.5mW
#  -1dBm	79%			0.79mW
#   0dbm	100%		1mW
**.wlan.phy.transmitterPower = 1mW
**.visualization = true
**.lightSwitch.mobility.initialX = 0m
**.lightSwitch.mobility.initialY = 0m
**.lightSwitch.udpApp[0].stopTime = 7.1s
**.lightSwitch.udpApp[0].burstDuration = 2s
**.lightSwitch.udpApp[0].sleepDuration = 3600s
**.lightSwitch.udpApp[0].sendInterval = 0.1s

[Config _400_10dBm_TopLeftCorner_Dimming]
**.numHosts = 400
#result-dir = /home/user/DATA/Sim_Results/Lighting/Dimming/Non_Beacon_CSMA/None/TopLeftCorner/_100ms/_10BackoffRetries/raw/_0dBm/_20
result-dir = Z:\Visualization\Dimming\_400Nodes\_10dBm\TopLeftCorner
### Possible Transmit Power steps
# -25dBm	min power	0.0032mW
# -15dBm	3.16%		0.0316mW	
# -10dbm	10%			0.1mW
#  -7dBm	19.95%		0.1995mW
#  -5dBm	31.6%		0.316mW
#  -3dBm	50%			0.5mW
#  -1dBm	79%			0.79mW
#   0dbm	100%		1mW
**.wlan.phy.transmitterPower = 0.1mW
**.visualization = true
**.lightSwitch.mobility.initialX = 0m
**.lightSwitch.mobility.initialY = 0m
**.lightSwitch.udpApp[0].stopTime = 7.1s
**.lightSwitch.udpApp[0].burstDuration = 2s
**.lightSwitch.udpApp[0].sleepDuration = 3600s
**.lightSwitch.udpApp[0].sendInterval = 0.1s

[Config _400_25dBm_TopLeftCorner_Dimming]
**.numHosts = 400
#result-dir = /home/user/DATA/Sim_Results/Lighting/Dimming/Non_Beacon_CSMA/None/TopLeftCorner/_100ms/_10BackoffRetries/raw/_0dBm/_20
result-dir = Z:\Visualization\Dimming\_400Nodes\_25dBm\TopLeftCorner
### Possible Transmit Power steps
# -25dBm	min power	0.0032mW
# -15dBm	3.16%		0.0316mW	
# -10dbm	10%			0.1mW
#  -7dBm	19.95%		0.1995mW
#  -5dBm	31.6%		0.316mW
#  -3dBm	50%			0.5mW
#  -1dBm	79%			0.79mW
#   0dbm	100%		1mW
**.wlan.phy.transmitterPower = 0.0032mW
**.visualization = true
**.lightSwitch.mobility.initialX = 0m
**.lightSwitch.mobility.initialY = 0m
**.lightSwitch.udpApp[0].stopTime = 7.1s
**.lightSwitch.udpApp[0].burstDuration = 2s
**.lightSwitch.udpApp[0].sleepDuration = 3600s
**.lightSwitch.udpApp[0].sendInterval = 0.1s

[Config _20_0dBm_BottomMiddle_Dimming]
**.numHosts = 20
#result-dir = /home/user/DATA/Sim_Results/Lighting/Dimming/Non_Beacon_CSMA/None/BottomMiddle/_100ms/_10BackoffRetries/raw/_0dBm/_20
result-dir = Z:\Visualization\Dimming\_20Nodes\_0dBm\BottomMiddle
### Possible Transmit Power steps
# -25dBm	min power	0.0032mW
# -15dBm	3.16%		0.0316mW	
# -10dbm	10%			0.1mW
#  -7dBm	19.95%		0.1995mW
#  -5dBm	31.6%		0.316mW
#  -3dBm	50%			0.5mW
#  -1dBm	79%			0.79mW
=======
**.lightSwitch.mobility.initialZ = 1.2m


[Config _20_0dBm1]
**.numHosts = 20
#result-dir = /home/user/DATA/Sim_Results/Lighting/Dimming/Non_Beacon_CSMA/None/BottomMiddle/_1040ms/_10BackoffRetries/raw/_0dBm1/_20
result-dir = Z:\Visualization\Probabilistic\Dimming\_20Nodes\_0dBm\BottomMiddle
### Possible Transmit Power steps
# -25dBm1	min power	0.0032mW
# -15dBm1	3.16%		0.0316mW	
# -10dbm	10%			0.1mW
#  -7dBm1	19.95%		0.1995mW
#  -5dBm1	31.6%		0.316mW
#  -3dBm1	50%			0.5mW
#  -1dBm1	79%			0.79mW
#   0dbm	100%		1mW
**.wlan.phy.transmitterPower = 1mW
**.visualization = true
**.lightSwitch.mobility.initialX = 40m
**.lightSwitch.mobility.initialY = 40m
**.lightSwitch.mobility.initialZ = 1.2m

[Config _20_10dBm1]
**.numHosts = 20
#result-dir = /home/user/DATA/Sim_Results/Lighting/Dimming/Non_Beacon_CSMA/None/BottomMiddle/_1040ms/_10BackoffRetries/raw/_0dBm1/_20
result-dir = Z:\Visualization\Probabilistic\Dimming\_20Nodes\_10dBm\BottomMiddle
### Possible Transmit Power steps
# -25dBm1	min power	0.0032mW
# -15dBm1	3.16%		0.0316mW	
# -10dbm	10%			0.1mW
#  -7dBm1	19.95%		0.1995mW
#  -5dBm1	31.6%		0.316mW
#  -3dBm1	50%			0.5mW
#  -1dBm1	79%			0.79mW
#   0dbm	100%		1mW
**.wlan.phy.transmitterPower = 0.1mW
**.visualization = true
**.lightSwitch.mobility.initialX = 40m
**.lightSwitch.mobility.initialY = 40m
**.lightSwitch.mobility.initialZ = 1.2m

[Config _20_25dBm1]
**.numHosts = 20
#result-dir = /home/user/DATA/Sim_Results/Lighting/Dimming/Non_Beacon_CSMA/None/BottomMiddle/_1040ms/_10BackoffRetries/raw/_0dBm1/_20
result-dir = Z:\Visualization\Probabilistic\Dimming\_20Nodes\_25dBm\BottomMiddle
### Possible Transmit Power steps
# -25dBm1	min power	0.0032mW
# -15dBm1	3.16%		0.0316mW	
# -10dbm	10%			0.1mW
#  -7dBm1	19.95%		0.1995mW
#  -5dBm1	31.6%		0.316mW
#  -3dBm1	50%			0.5mW
#  -1dBm1	79%			0.79mW
#   0dbm	100%		1mW
**.wlan.phy.transmitterPower = 0.0032mW
**.visualization = true
**.lightSwitch.mobility.initialX = 40m
**.lightSwitch.mobility.initialY = 40m
**.lightSwitch.mobility.initialZ = 1.2m

[Config _200_0dBm1]
**.numHosts = 200
#result-dir = /home/user/DATA/Sim_Results/Lighting/Dimming/Non_Beacon_CSMA/None/BottomMiddle/_1040ms/_10BackoffRetries/raw/_0dBm1/_20
result-dir = Z:\Visualization\Probabilistic\Dimming\_200Nodes\_0dBm\BottomMiddle
### Possible Transmit Power steps
# -25dBm1	min power	0.0032mW
# -15dBm1	3.16%		0.0316mW	
# -10dbm	10%			0.1mW
#  -7dBm1	19.95%		0.1995mW
#  -5dBm1	31.6%		0.316mW
#  -3dBm1	50%			0.5mW
#  -1dBm1	79%			0.79mW
#   0dbm	100%		1mW
**.wlan.phy.transmitterPower = 1mW
**.visualization = true
**.lightSwitch.mobility.initialX = 40m
**.lightSwitch.mobility.initialY = 40m
**.lightSwitch.mobility.initialZ = 1.2m
