[General]
repeat = 10000
sim-time-limit = 15850s

ned-path = /home/user/Workspace/DenseWirelessNetworks/dense-wireless-sensor-network/IEEE802154/simulations/;/home/user/Workspace/DenseWirelessNetworks/dense-wireless-sensor-network/IEEE802154/src
network = ieee802154.simulations.UseCase1_Lighting.Dimming.TSCH.RealTimeNetwork
num-rngs = 1
cmdenv-express-mode = true
tkenv-plugin-path = ../../../Etc/plugins
description = "Lighting Dimming TSCH"
#seed-%-mt = 54366
output-vector-file = ${resultdir}/vector/${runid}.vec
output-scalar-file = ${resultdir}/scalar/${runid}.sca

#Debug
parallel-simulation = false
**.debug = false
**.coreDebug = false

#Number of Nodes
**.numHosts = 20
###########################################################
##############Configure NodeLocation#######################
###########################################################
*.fixhost[*].mobility.distanceToWall = 2.5m
*.fixhost[*].mobility.distanceToCeiling = 0.3m

*.fixhost[*].X = 80m
*.fixhost[*].Y = 40m
*.fixhost[*].Z = 3.3m

*.fixhost[*].mobility.numHosts = 20



##########################################################
##############Configure ChannelControl#####################
###########################################################
**.channelControl.coreDebug = false
**.channelControl.alpha = 3 #// path loss coefficient
**.channelControl.carrierFrequency = 2.4GHz #// base carrier frequency of all the channels (in Hz)
**.channelControl.maxInterferenceDistance = -1m  ##6m for 240 nodes ##26m 16 nodes
**.channelControl.numChannels = 27 #// number of radio channels (frequencies)
**.channelControl.pMax = 1mW #// maximum sending power used for this network (in mW)
**.channelControl.propagationModel = "NakagamiModel" #("FreeSpaceModel","TwoRayGroundModel","RiceModel","RayleighModel","NakagamiModel","LogNormalShadowingModel")
**.channelControl.sat = -95dBm #// signal attenuation threshold (in dBm)
**.channelNumber = 11

###########################################################
##############Configure Display############################
###########################################################

**.fixhost[*].disp.alpha = 3
**.fixhost[*].disp.carrierFrequency = 2.4GHz
**.fixhost[*].disp.debug = default
**.fixhost[*].disp.sat = -95dBm
**.fixhost[*].disp.sensitivity = -95dBm
**.fixhost[*].disp.transmitterPower = 1mW

###########################################################
##############Configure Battery############################
###########################################################
**.fixhost[*].battery.ConsumedVector = true
**.fixhost[*].battery.capacity = 2850
**.fixhost[*].battery.nominal = 2850
**.fixhost[*].battery.endSimulationIfexhausted = false
**.fixhost[*].battery.publishDelta = 0.01
**.fixhost[*].battery.publishTime = 10s
**.fixhost[*].battery.resolution = 1s
**.fixhost[*].battery.voltage = 3
#**.fixhost[*].battery.*_EnergyConsumed_*.vector-recording = false


###########################################################
###########Configure WLAN Module###########################
###########################################################
#Configure WLAN Queue
**.wlan.ifqType = "Ieee802154eQueue"
**.ifq.frameCapacity = 256
**.macAckWaitDuration = 0.001s

#Configure WLAN PHY
**.wlan.phy.usage_radio_recv = 23mA
**.wlan.phy.usage_radio_idle = 0.021mA
**.wlan.phy.usage_radio_sleep = 0.001mA

###########################################################
##############Configure PHYLayer###########################
###########################################################

#Configure PHY-Layer
**.fixhost[*].wlan.phy.channelNumber = 11
**.fixhost[*].wlan.phy.NoBitError = false

**.fixhost[*].wlan.phy.sensitivity = -95dBm #[dBm]
**.fixhost[*].wlan.phy.receptionThreshold = -110dBm
**.fixhost[*].wlan.phy.thermalNoise = -110dBm #[dBm]
**.fixhost[*].wlan.phy.pathLossAlpha = 3
**.fixhost[*].wlan.phy.TransmissionAntennaGainIndB = 0dB
**.fixhost[*].wlan.phy.ReceiveAntennaGainIndB = 0dB
**.fixhost[*].wlan.phy.SystemLossFactor = 0dB
**.fixhost[*].wlan.phy.nak_m = 2.9
**.fixhost[*].wlan.phy.aMaxPHYPacketSize = 127
**.fixhost[*].wlan.phy.aTurnaroundTime = default #312.5
**.phy.snirThreshold = 4dB



###########################################################
##############Configure MAC Layer##########################
###########################################################
#**.fixhost[0].wlan.mac.isPANCoor = true

####		LINUX		######
#**.fixhost[*].hoppingSequenceList.hoppingSequenceListFilename = "hoppingSequenceList" 
#**.fixhost[*].hoppingSequenceList.hoppingSequenceListSubFolder = "/home/user/DATA/Tables/HoppingSequenceList/"
#**.fixhost[*].hoppingSequenceList.readHoppingSequenceListFromFile = true
#**.fixhost[*].linkTable.linktableFilesSubFolder = "/home/user/DATA/Tables/LinkTable/20/"
#**.fixhost[*].linkTable.readLinksFromFile = true
#**.fixhost[*].linkTable.linkFilename ="linkTable"
#**.fixhost[*].slotframeTable.slotframeTableSubFolder = "/home/user/DATA/Tables/SlotframeTable/20/"
#**.fixhost[*].slotframeTable.readSlotframesFromFile = true
#**.fixhost[*].slotframeTable.slotframeFilename = "slotframeTable"
#**.fixhost[*].timeslotTemplate.timeslotTableSubFolder =  "/home/user/DATA/Tables/TemplateTable/"
#**.fixhost[*].timeslotTemplate.timeslotFilename = "templateTable"
#**.fixhost[*].timeslotTemplate.readTimeslotsFromFile =  true


####		WINDOWS			######
**.fixhost[*].hoppingSequenceList.hoppingSequenceListFilename = "hoppingSequenceList" 
**.fixhost[*].hoppingSequenceList.hoppingSequenceListSubFolder = "/home/user/DATA/Tables/HoppingSequenceList/"
**.fixhost[*].hoppingSequenceList.readHoppingSequenceListFromFile = true
**.fixhost[*].linkTable.readLinksFromFile = true
**.fixhost[*].linkTable.linkFilename ="linkTable"
**.fixhost[*].slotframeTable.readSlotframesFromFile = true
**.fixhost[*].slotframeTable.slotframeFilename = "slotframeTable"
**.fixhost[*].timeslotTemplate.timeslotFilename = "templateTable"
**.fixhost[*].timeslotTemplate.readTimeslotsFromFile =  true

**.fixhost[*].wlan.mac.useMACAcks = true
**.fixhost[*].wlan.mac.sifs = default #0.005s
**.fixhost[*].wlan.mac.macMaxCSMABackoffs = 5
**.fixhost[*].wlan.mac.macMaxFrameRetries = 3
**.fixhost[*].wlan.mac.macAckWaitDuration = 0.05s
**.fixhost[*].wlan.mac.ccaDetectionTime = 0.000128s
**.fixhost[*].wlan.mac.rxSetupTime = default
**.fixhost[*].wlan.mac.aTurnaroundTime = default #0.005s
**.fixhost[*].wlan.mac.aUnitBackoffPeriod = default
**.fixhost[*].wlan.mac.ackLength = default
**.fixhost[*].wlan.mac.headerLength = default
**.fixhost[*].wlan.mac.backoffMethod = "exponential"
**.fixhost[*].wlan.mac.contentionWindow = 2
**.fixhost[*].wlan.mac.macMinBE = default
**.fixhost[*].wlan.mac.macMaxBE = default
**.fixhost[*].wlan.mac.useIeee802Ctrl 	= true			# to use the Ieee802Ctrl Network messages
**.fixhost[*].wlan.mac.useTSCH 			= true			# use the TSCH mode (Std 802.15.4e-2012)
**.fixhost[*].wlan.mac.setRxOnWhenIdle 	= false			# default: true;
#**.fixhost[0].**.mac.isPANCoor			= true
**.fixhost[*].**.mac.isPANCoor			= false
**.fixhost[*].**.mac.useTimeslotID 		= 0			# default: 0 (problem at the std default with the 2200 RxWait time (in the 6TSCH is it declaired as 2000 RxWait time))
# use: 2 for "corrected" default or 1 for the 6TSCH minimal example
**.fixhost[*].**.mac.useHoppingSequenceID = 0			# default: 0 (all 16 channels)
**.fixhost[*].**.mac.useMetrics			= true
**.mac.useCCA = true
#**.mac.panCoorName						= "fixhost[0]"

###########################################################
##############Configure NotificationBoard##################
###########################################################



###########################################################
##############Configure InterfaceTable#####################
###########################################################

**.interfaceTable.displayAddresses = false

###########################################################
##############Configure NetworkConfigurator################
###########################################################

**.configurator.addDefaultRoutes = false
**.configurator.addStaticRoutes = false
**.configurator.addSubnetRoutes = false
**.configurator.assignAddresses = true
**.configurator.assignDisjunctSubnetAddresses = true
**.configurator.dumpAddresses = false
**.configurator.dumpConfig = "ConfigTest"
**.configurator.dumpLinks = false
**.configurator.dumpRoutes = false
**.configurator.dumpTopology = false
**.configurator.optimizeRoutes = false


###########################################################
##############Configure Display############################
###########################################################

**.fixhost[*].disp.alpha = 2
**.fixhost[*].disp.carrierFrequency = 2.4GHz
**.fixhost[*].disp.debug = default
**.fixhost[*].disp.sat = -50dBm
**.fixhost[*].disp.sensitivity = -85dBm
**.fixhost[*].disp.transmitterPower = 2mW

###########################################################
####################Configure UDPApp#######################
###########################################################
####Sender####
**.fixhost[0].udpAppType = "UDPBroadcastBurst"
**.fixhost[0].numUdpApps = 1


**.fixhost[0].udpApp[0].excludeLocalDestAddresses = true
**.fixhost[0].udpApp[0].chooseDestAddrMode = "perBurst"
**.fixhost[0].udpApp[0].destAddrRNG = 1
**.fixhost[0].udpApp[0].localPort = 1234
**.fixhost[0].udpApp[0].destPort = 1234
**.fixhost[0].udpApp[0].startTime = 5s
**.fixhost[0].udpApp[0].stopTime = 15830s
**.fixhost[0].udpApp[0].messageLength = 72B
**.fixhost[0].udpApp[0].burstDuration = 2s
**.fixhost[0].udpApp[0].sleepDuration = 60s
**.fixhost[0].udpApp[0].sendInterval = 0.1s
**.fixhost[0].udpApp[0].delayLimit = 2000s
**.fixhost[0].udpApp[0].outputInterface = "wlan"
**.fixhost[0].udpApp[0].outputInterfaceMulticastBroadcast = "wlan"
**.fixhost[0].udpApp[0].setBroadcast = true


##all other nodes##
**.fixhost[*].udpAppType = "UDPBroadcastControl"
**.fixhost[*].numUdpApps = 1
**.fixhost[*].udpApp[0].localPort = 1234
**.fixhost[*].udpApp[0].destPort = 1234
**.fixhost[*].udpApp[0].messageLength = 72B #lenght in Bytes
**.fixhost[*].udpApp[0].sendInterval = 5s  #+ uniform(-0.001s,0.001s,1)
**.fixhost[*].udpApp[0].burstDuration = 2s #uniform(1s,4s,1)
**.fixhost[*].udpApp[0].stopTime = -1s
**.fixhost[*].udpApp[0].startTime = 5s
**.fixhost[*].udpApp[0].delayLimit = 2000s
**.fixhost[*].udpApp[0].setBroadcast = true
**.fixhost[*].udpApp[0].outputInterface = "wlan"
**.fixhost[*].udpApp[0].outputInterfaceMulticastBroadcast = "wlan"
**.fixhost[*].udpApp[0].isSource = false
**.fixhost[*].udpApp[0].isSink = true
**.fixhost[*].udpApp[0].resendBroadcast = true

**.fixhost[*].udpApp[0].*_E2ED_*.vector-recording = true
**.fixhost[*].udpApp[0].*_E2ED_*.with-akaroa = true

**.fixhost[*].udpApp[0].*_HopCount_*.vector-recording = true
#**.fixhost[*].udpApp[0].*_HopCount_*.with-akaroa = true

**.fixhost[*].udpApp[0].*_ReceivedMSG_*.scalar-recording = true
#**.fixhost[*].udpApp[0].*_ReceivedMSG_*.with-akaroa = true
**.fixhost[*].udpApp[0].*_ReMSG_*.scalar-recording = true
#**.fixhost[*].udpApp[0].*_ReMSG_*.with-akaroa = true
**.fixhost[*].udpApp[0].*_DRMSG_*.scalar-recording = true
#**.fixhost[*].udpApp[0].*_DRMSG_*.with-akaroa = true
**.fixhost[0].udpApp[0].*_MSGSent_*.scalar-recording = true
#**.fixhost[0].udpApp[0].*_MSGSent_*.with-akaroa = true
**.fixhost[0].udpApp[0].*_BurstsSent_*.scalar-recording = true
#**.fixhost[0].udpApp[0].*_BurstsSent_*.with-akaroa = true

**.fixhost[*].**_numCollision_*.scalar-recording = true
#**.fixhost[*].udpApp[0].*_numCollision_*.with-akaroa = true
**.fixhost[*].**_nbDroppedFrames_*.scalar-recording = true
#**.fixhost[*].udpApp[0].*_nbDroppedFrames_*.with-akaroa = true
**.fixhost[*].**_nbRxFrames_*.scalar-recording = false
#**.fixhost[*].udpApp[0].*_nbRxFrames_*.with-akaroa = true
**.fixhost[*].**_nbTxFrames_*.scalar-recording = true
#**.fixhost[*].udpApp[0].*_nbTxFrames_*.with-akaroa = true
**.fixhost[*].**_nbRxFramesBroadcast_*.scalar-recording = true


**.vector-recording = false
**.with-akaroa = false



###Configure Destination Addess
#**.fixhost[0].udpApp[0].destAddresses = moduleListByPath("**.fixhost[5]")
#**.fixhost[1].udpApp[0].destAddresses = moduleListByPath("**.fixhost[3]")
#**.fixhost[2].udpApp[0].destAddresses = moduleListByPath("**.fixhost[0]")
**.fixhost[0].udpApp[0].destAddresses =  "255.255.255.255" #moduleListByPath("**.fixhost[*]")
#**.fixhost[*].udpApp[0].destAddresses = ""


#**.fixhost[4].udpApp[0].destAddresses = moduleListByPath("**.fixhost[0]")
#**.fixhost[5].udpApp[0].destAddresses = moduleListByPath("**.fixhost[3]")



###########################################################
####################Configure RoutingProtocol##############
###########################################################

#Set Routing protocol
**.fixhost[*].routingProtocol = ""

#General MANET parameters
**.fixhost[*].manetrouting.excludedInterfaces = ""
**.fixhost[*].manetrouting.interfaces = "prefix(wlan)"
**.fixhost[*].manetrouting.useManetLabelRouting = true
**.fixhost[*].manetrouting.useICMP = true 
**.fixhost[*].manetrouting.setICMPSourceAddress = true
**.fixhost[*].manetrouting.manetPurgeRoutingTables = true
**.fixhost[*].manetrouting.autoassignAddress = false
**.fixhost[*].manetrouting.autoassignAddressBase = "10.0.0.0"
**.fixhost[*].manetrouting.isStaticNode = true

#AODV-UU
**.fixhost[*].manetrouting.log_to_file = false
**.fixhost[*].manetrouting.hello_jittering = false
**.fixhost[*].manetrouting.optimized_hellos = true
**.fixhost[*].manetrouting.expanding_ring_search = false
**.fixhost[*].manetrouting.local_repair = true
**.fixhost[*].manetrouting.rreq_gratuitous = false
**.fixhost[*].manetrouting.debug = true
**.fixhost[*].manetrouting.rt_log_interval = 0
**.fixhost[*].manetrouting.unidir_hack = 1
**.fixhost[*].manetrouting.receive_n_hellos = 1
**.fixhost[*].manetrouting.wait_on_reboot = 1
**.fixhost[*].manetrouting.ratelimit = 1
**.fixhost[*].manetrouting.active_timeout = 300
**.fixhost[*].manetrouting.llfeedback = true
**.fixhost[*].manetrouting.internet_gw_mode = 0
**.fixhost[*].manetrouting.internet_gw_address = "0.0.0.0"
**.fixhost[*].manetrouting.targetOnlyRreq = true
**.fixhost[*].manetrouting.EqualDelay = false
**.fixhost[*].manetrouting.broadcastDelay = uniform(0s,0.005s)
**.fixhost[*].manetrouting.unicastDelay = 0s
**.fixhost[*].manetrouting.UseIndex = true
**.fixhost[*].manetrouting.useHover = false
**.fixhost[*].manetrouting.costStatic = 1
**.fixhost[*].manetrouting.costMobile = 4
**.fixhost[*].manetrouting.isRoot = false
**.fixhost[*].manetrouting.proactiveRreqTimeout = 5000
**.fixhost[*].manetrouting.proactiveLifeTime = 1000000
**.fixhost[*].manetrouting.startRreqProactive = intuniform(1000,2000)
**.fixhost[*].manetrouting.propagateProactive = true
**.fixhost[*].manetrouting.checkNextHop = false
**.fixhost[*].manetrouting.PublicRoutingTables = false
**.fixhost[*].manetrouting.RreqDelayInReception = false
**.fixhost[*].manetrouting.rreqWait = 0.01s
**.fixhost[*].manetrouting.avoidDupRREP = true
**.fixhost[*].manetrouting.RRERFoceDiscover = true

#OLSR
**.fixhost[*].manetrouting.Willingness = 4
**.fixhost[*].manetrouting.Hello_ival = 2s
**.fixhost[*].manetrouting.Tc_ival = 5s
**.fixhost[*].manetrouting.Mid_ival = 5s
**.fixhost[*].manetrouting.use_mac = 0
**.fixhost[*].manetrouting.UseIndex = false
**.fixhost[*].manetrouting.reduceFuncionality = false
**.fixhost[*].manetrouting.OLSR_REFRESH_INTERVAL = 2s
**.fixhost[*].manetrouting.PublicRoutingTables = false
**.fixhost[*].manetrouting.optimizedMid = false
**.fixhost[*].manetrouting.DelOnlyRtEntriesInrtable_ = false

#Batman
**.fixhost[*].manetrouting.debugLevel = 4
**.fixhost[*].manetrouting.purgeTimeout = 200s
**.fixhost[*].manetrouting.originatorInterval = 1s
**.fixhost[*].manetrouting.preferedGateWay = "0.0.0.0"
**.fixhost[*].manetrouting.routingClass = 0
**.fixhost[*].manetrouting.aggregationEnable = true
**.fixhost[*].manetrouting.GWClass_download_speed = 0
**.fixhost[*].manetrouting.GWClass_upload_speed = 0
**.fixhost[*].manetrouting.jitter = uniform(0s,0.1s)
**.fixhost[*].manetrouting.jitter2 = uniform(-0.1s,0.1s)
**.fixhost[*].manetrouting.MAX_AGGREGATION_MS = 0.1s
**.fixhost[*].manetrouting.MAX_AGGREGATION_BYTES = 512B
**.fixhost[*].manetrouting.desynchronized = 0s
**.fixhost[*].manetrouting.broadcastDelay = uniform(0s,0.005s)
**.fixhost[*].manetrouting.PublicRoutingTables = false
**.fixhost[*].manetrouting.announcedNetworks = ""


##############################################################################
#       Output vectors                                                       #
##############################################################################
#**.DublicatedPk.result-recording-modes = true
#**.ReBroadcastPk.result-recording-modes = true
#**.sentPk. = true
**.End-to-end delay.vector-recording = true
**.Mean end-to-end delay.vector-recording = true
**.vector-recording = false
#**.result-recording-modes = false


##############################################################################
#       Output vectors                                                       #
##############################################################################
#**.DublicatedPk.result-recording-modes = true
#**.ReBroadcastPk.result-recording-modes = true
#**.sentPk. = true
**.scalar-recording = false
#**.End-to-end delay.vector-recording = true
#**.Mean end-to-end delay.vector-recording = true
#**.vector-recording = false
#**.result-recording-modes = false

[Config _20_0dBm]
**.numHosts = 20
result-dir = /home/user/DATA/Sim_Results/Lighting/Dimming/TSCH/_AllNeigh/raw/_0dBm/_20
**.fixhost[*].slotframeTable.slotframeTableSubFolder = "/home/user/DATA/Tables/AllNeigh/SlotframeTable/20/"
**.fixhost[*].timeslotTemplate.timeslotTableSubFolder =  "/home/user/DATA/Tables/AllNeigh/TemplateTable/20/"
**.fixhost[*].linkTable.linktableFilesSubFolder = "/home/user/DATA/Tables/AllNeigh/LinkTable/20/"
### Possible Transmit Power steps
# -25dBm	min power	0.0032mW
# -15dBm	3.16%		0.0316mW	
# -10dbm	10%			0.1mW
#  -7dBm	19.95%		0.1995mW
#  -5dBm	31.6%		0.316mW
#  -3dBm	50%			0.5mW
#  -1dBm	79%			0.79mW
#   0dbm	100%		1mW
**.fixhost[*].wlan.phy.transmitterPower = 1mW


[Config _50_0dBm]
**.numHosts = 50
result-dir = /home/user/DATA/Sim_Results/Lighting/Dimming/TSCH/_AllNeigh/raw/_0dBm/_50
**.fixhost[*].slotframeTable.slotframeTableSubFolder = "/home/user/DATA/Tables/AllNeigh/SlotframeTable/50/"
**.fixhost[*].timeslotTemplate.timeslotTableSubFolder =  "/home/user/DATA/Tables/AllNeigh/TemplateTable/50/"
**.fixhost[*].linkTable.linktableFilesSubFolder = "/home/user/DATA/Tables/AllNeigh/LinkTable/50/"
### Possible Transmit Power steps
# -25dBm	min power	0.0032mW
# -15dBm	3.16%		0.0316mW	
# -10dbm	10%			0.1mW
#  -7dBm	19.95%		0.1995mW
#  -5dBm	31.6%		0.316mW
#  -3dBm	50%			0.5mW
#  -1dBm	79%			0.79mW
#   0dbm	100%		1mW
**.fixhost[*].wlan.phy.transmitterPower = 1mW


[Config _100_0dBm]
**.numHosts = 100
result-dir = /home/user/DATA/Sim_Results/Lighting/Dimming/TSCH/_AllNeigh/raw/_0dBm/_100
**.fixhost[*].slotframeTable.slotframeTableSubFolder = "/home/user/DATA/Tables/AllNeigh/SlotframeTable/100/"
**.fixhost[*].timeslotTemplate.timeslotTableSubFolder =  "/home/user/DATA/Tables/AllNeigh/TemplateTable/100/"
**.fixhost[*].linkTable.linktableFilesSubFolder = "/home/user/DATA/Tables/AllNeigh/LinkTable/100/"
### Possible Transmit Power steps
# -25dBm	min power	0.0032mW
# -15dBm	3.16%		0.0316mW	
# -10dbm	10%			0.1mW
#  -7dBm	19.95%		0.1995mW
#  -5dBm	31.6%		0.316mW
#  -3dBm	50%			0.5mW
#  -1dBm	79%			0.79mW
#   0dbm	100%		1mW
**.fixhost[*].wlan.phy.transmitterPower = 1mW


[Config _150_0dBm]
**.numHosts = 150
result-dir = /home/user/DATA/Sim_Results/Lighting/Dimming/TSCH/_AllNeigh/raw/_0dBm/_150
**.fixhost[*].slotframeTable.slotframeTableSubFolder = "/home/user/DATA/Tables/AllNeigh/SlotframeTable/150/"
**.fixhost[*].timeslotTemplate.timeslotTableSubFolder =  "/home/user/DATA/Tables/AllNeigh/TemplateTable/150/"
**.fixhost[*].linkTable.linktableFilesSubFolder = "/home/user/DATA/Tables/AllNeigh/LinkTable/150/"
### Possible Transmit Power steps
# -25dBm	min power	0.0032mW
# -15dBm	3.16%		0.0316mW	
# -10dbm	10%			0.1mW
#  -7dBm	19.95%		0.1995mW
#  -5dBm	31.6%		0.316mW
#  -3dBm	50%			0.5mW
#  -1dBm	79%			0.79mW
#   0dbm	100%		1mW
**.fixhost[*].wlan.phy.transmitterPower = 1mW


[Config _200_0dBm]
**.numHosts = 200
result-dir = /home/user/DATA/Sim_Results/Lighting/Dimming/TSCH/_AllNeigh/raw/_0dBm/_200
**.fixhost[*].slotframeTable.slotframeTableSubFolder = "/home/user/DATA/Tables/AllNeigh/SlotframeTable/200/"
**.fixhost[*].timeslotTemplate.timeslotTableSubFolder =  "/home/user/DATA/Tables/AllNeigh/TemplateTable/200/"
**.fixhost[*].linkTable.linktableFilesSubFolder = "/home/user/DATA/Tables/AllNeigh/LinkTable/200/"
### Possible Transmit Power steps
# -25dBm	min power	0.0032mW
# -15dBm	3.16%		0.0316mW	
# -10dbm	10%			0.1mW
#  -7dBm	19.95%		0.1995mW
#  -5dBm	31.6%		0.316mW
#  -3dBm	50%			0.5mW
#  -1dBm	79%			0.79mW
#   0dbm	100%		1mW
**.fixhost[*].wlan.phy.transmitterPower = 1mW


[Config _240_0dBm]
**.numHosts = 240
result-dir = /home/user/DATA/Sim_Results/Lighting/Dimming/TSCH/_AllNeigh/raw/_0dBm/_240
**.fixhost[*].slotframeTable.slotframeTableSubFolder = "/home/user/DATA/Tables/AllNeigh/SlotframeTable/240/"
**.fixhost[*].timeslotTemplate.timeslotTableSubFolder =  "/home/user/DATA/Tables/AllNeigh/TemplateTable/240/"
**.fixhost[*].linkTable.linktableFilesSubFolder = "/home/user/DATA/Tables/AllNeigh/LinkTable/240/"
### Possible Transmit Power steps
# -25dBm	min power	0.0032mW
# -15dBm	3.16%		0.0316mW	
# -10dbm	10%			0.1mW
#  -7dBm	19.95%		0.1995mW
#  -5dBm	31.6%		0.316mW
#  -3dBm	50%			0.5mW
#  -1dBm	79%			0.79mW
#   0dbm	100%		1mW
**.fixhost[*].wlan.phy.transmitterPower = 1mW

[Config _400_0dBm]
**.numHosts = 400
result-dir = /home/user/DATA/Sim_Results/Lighting/Dimming/TSCH/_AllNeigh/raw/_0dBm/_400
**.fixhost[*].slotframeTable.slotframeTableSubFolder = "/home/user/DATA/Tables/AllNeigh/SlotframeTable/400/"
**.fixhost[*].timeslotTemplate.timeslotTableSubFolder =  "/home/user/DATA/Tables/AllNeigh/TemplateTable/400/"
**.fixhost[*].linkTable.linktableFilesSubFolder = "/home/user/DATA/Tables/AllNeigh/LinkTable/400/"
### Possible Transmit Power steps
# -25dBm	min power	0.0032mW
# -15dBm	3.16%		0.0316mW	
# -10dbm	10%			0.1mW
#  -7dBm	19.95%		0.1995mW
#  -5dBm	31.6%		0.316mW
#  -3dBm	50%			0.5mW
#  -1dBm	79%			0.79mW
#   0dbm	100%		1mW
**.fixhost[*].wlan.phy.transmitterPower = 1mW


########################################################################################################################
########################################################################################################################
########################################################################################################################
########################################################################################################################
########################################################################################################################
########################################################################################################################
########################################################################################################################

[Config _20_3dBm]
**.numHosts = 20
result-dir = /home/user/DATA/Sim_Results/Lighting/Dimming/TSCH/_AllNeigh/raw/_3dBm/_20
**.fixhost[*].slotframeTable.slotframeTableSubFolder = "/home/user/DATA/Tables/AllNeigh/SlotframeTable/20/"
**.fixhost[*].timeslotTemplate.timeslotTableSubFolder =  "/home/user/DATA/Tables/AllNeigh/TemplateTable/20/"
**.fixhost[*].linkTable.linktableFilesSubFolder = "/home/user/DATA/Tables/AllNeigh/LinkTable/20/"
### Possible Transmit Power steps
# -25dBm	min power	0.0032mW
# -15dBm	3.16%		0.0316mW	
# -10dbm	10%			0.1mW
#  -7dBm	19.95%		0.1995mW
#  -5dBm	31.6%		0.316mW
#  -3dBm	50%			0.5mW
#  -1dBm	79%			0.79mW
#   0dbm	100%		1mW
**.fixhost[*].wlan.phy.transmitterPower = 0.5mW

[Config _50_3dBm]
**.numHosts = 50
result-dir = /home/user/DATA/Sim_Results/Lighting/Dimming/TSCH/_AllNeigh/raw/_3dBm/_50
**.fixhost[*].slotframeTable.slotframeTableSubFolder = "/home/user/DATA/Tables/AllNeigh/SlotframeTable/50/"
**.fixhost[*].timeslotTemplate.timeslotTableSubFolder =  "/home/user/DATA/Tables/AllNeigh/TemplateTable/50/"
**.fixhost[*].linkTable.linktableFilesSubFolder = "/home/user/DATA/Tables/AllNeigh/LinkTable/50/"
### Possible Transmit Power steps
# -25dBm	min power	0.0032mW
# -15dBm	3.16%		0.0316mW	
# -10dbm	10%			0.1mW
#  -7dBm	19.95%		0.1995mW
#  -5dBm	31.6%		0.316mW
#  -3dBm	50%			0.5mW
#  -1dBm	79%			0.79mW
#   0dbm	100%		1mW
**.fixhost[*].wlan.phy.transmitterPower = 0.5mW

[Config _100_3dBm]
**.numHosts = 100
result-dir = /home/user/DATA/Sim_Results/Lighting/Dimming/TSCH/_AllNeigh/raw/_3dBm/_100
**.fixhost[*].slotframeTable.slotframeTableSubFolder = "/home/user/DATA/Tables/AllNeigh/SlotframeTable/100/"
**.fixhost[*].timeslotTemplate.timeslotTableSubFolder =  "/home/user/DATA/Tables/AllNeigh/TemplateTable/100/"
**.fixhost[*].linkTable.linktableFilesSubFolder = "/home/user/DATA/Tables/AllNeigh/LinkTable/100/"
### Possible Transmit Power steps
# -25dBm	min power	0.0032mW
# -15dBm	3.16%		0.0316mW	
# -10dbm	10%			0.1mW
#  -7dBm	19.95%		0.1995mW
#  -5dBm	31.6%		0.316mW
#  -3dBm	50%			0.5mW
#  -1dBm	79%			0.79mW
#   0dbm	100%		1mW
**.fixhost[*].wlan.phy.transmitterPower = 0.5mW

[Config _150_3dBm]
**.numHosts = 150
result-dir = /home/user/DATA/Sim_Results/Lighting/Dimming/TSCH/_AllNeigh/raw/_3dBm/_150
**.fixhost[*].slotframeTable.slotframeTableSubFolder = "/home/user/DATA/Tables/AllNeigh/SlotframeTable/150/"
**.fixhost[*].timeslotTemplate.timeslotTableSubFolder =  "/home/user/DATA/Tables/AllNeigh/TemplateTable/150/"
**.fixhost[*].linkTable.linktableFilesSubFolder = "/home/user/DATA/Tables/AllNeigh/LinkTable/150/"
### Possible Transmit Power steps
# -25dBm	min power	0.0032mW
# -15dBm	3.16%		0.0316mW	
# -10dbm	10%			0.1mW
#  -7dBm	19.95%		0.1995mW
#  -5dBm	31.6%		0.316mW
#  -3dBm	50%			0.5mW
#  -1dBm	79%			0.79mW
#   0dbm	100%		1mW
**.fixhost[*].wlan.phy.transmitterPower = 0.5mW

[Config _200_3dBm]
**.numHosts = 200
result-dir = /home/user/DATA/Sim_Results/Lighting/Dimming/TSCH/_AllNeigh/raw/_3dBm/_200
**.fixhost[*].slotframeTable.slotframeTableSubFolder = "/home/user/DATA/Tables/AllNeigh/SlotframeTable/200/"
**.fixhost[*].timeslotTemplate.timeslotTableSubFolder =  "/home/user/DATA/Tables/AllNeigh/TemplateTable/200/"
**.fixhost[*].linkTable.linktableFilesSubFolder = "/home/user/DATA/Tables/AllNeigh/LinkTable/200/"
### Possible Transmit Power steps
# -25dBm	min power	0.0032mW
# -15dBm	3.16%		0.0316mW	
# -10dbm	10%			0.1mW
#  -7dBm	19.95%		0.1995mW
#  -5dBm	31.6%		0.316mW
#  -3dBm	50%			0.5mW
#  -1dBm	79%			0.79mW
#   0dbm	100%		1mW
**.fixhost[*].wlan.phy.transmitterPower = 0.5mW

[Config _240_3dBm]
**.numHosts = 240
result-dir = /home/user/DATA/Sim_Results/Lighting/Dimming/TSCH/_AllNeigh/raw/_3dBm/_240
**.fixhost[*].slotframeTable.slotframeTableSubFolder = "/home/user/DATA/Tables/AllNeigh/SlotframeTable/240/"
**.fixhost[*].timeslotTemplate.timeslotTableSubFolder =  "/home/user/DATA/Tables/AllNeigh/TemplateTable/240/"
**.fixhost[*].linkTable.linktableFilesSubFolder = "/home/user/DATA/Tables/AllNeigh/LinkTable/240/"
### Possible Transmit Power steps
# -25dBm	min power	0.0032mW
# -15dBm	3.16%		0.0316mW	
# -10dbm	10%			0.1mW
#  -7dBm	19.95%		0.1995mW
#  -5dBm	31.6%		0.316mW
#  -3dBm	50%			0.5mW
#  -1dBm	79%			0.79mW
#   0dbm	100%		1mW
**.fixhost[*].wlan.phy.transmitterPower = 0.5mW

[Config _400_3dBm]
**.numHosts = 400
result-dir = /home/user/DATA/Sim_Results/Lighting/Dimming/TSCH/_AllNeigh/raw/_3dBm/_400
**.fixhost[*].slotframeTable.slotframeTableSubFolder = "/home/user/DATA/Tables/AllNeigh/SlotframeTable/400/"
**.fixhost[*].timeslotTemplate.timeslotTableSubFolder =  "/home/user/DATA/Tables/AllNeigh/TemplateTable/400/"
**.fixhost[*].linkTable.linktableFilesSubFolder = "/home/user/DATA/Tables/AllNeigh/LinkTable/400/"
### Possible Transmit Power steps
# -25dBm	min power	0.0032mW
# -15dBm	3.16%		0.0316mW	
# -10dbm	10%			0.1mW
#  -7dBm	19.95%		0.1995mW
#  -5dBm	31.6%		0.316mW
#  -3dBm	50%			0.5mW
#  -1dBm	79%			0.79mW
#   0dbm	100%		1mW
**.fixhost[*].wlan.phy.transmitterPower = 0.5mW
########################################################################################################################
########################################################################################################################
########################################################################################################################
########################################################################################################################
########################################################################################################################
########################################################################################################################
########################################################################################################################


[Config _20_7dBm]
**.numHosts = 20
result-dir = /home/user/DATA/Sim_Results/Lighting/Dimming/TSCH/_AllNeigh/raw/_7dBm/_20
**.fixhost[*].slotframeTable.slotframeTableSubFolder = "/home/user/DATA/Tables/AllNeigh/SlotframeTable/20/"
**.fixhost[*].timeslotTemplate.timeslotTableSubFolder =  "/home/user/DATA/Tables/AllNeigh/TemplateTable/20/"
**.fixhost[*].linkTable.linktableFilesSubFolder = "/home/user/DATA/Tables/AllNeigh/LinkTable/20/"
### Possible Transmit Power steps
# -25dBm	min power	0.0032mW
# -15dBm	3.16%		0.0316mW	
# -10dbm	10%			0.1mW
#  -7dBm	19.95%		0.1995mW
#  -5dBm	31.6%		0.316mW
#  -3dBm	50%			0.5mW
#  -1dBm	79%			0.79mW
#   0dbm	100%		1mW
**.fixhost[*].wlan.phy.transmitterPower = 0.1995mW

[Config _50_7dBm]
**.numHosts = 50
result-dir = /home/user/DATA/Sim_Results/Lighting/Dimming/TSCH/_AllNeigh/raw/_7dBm/_50